Info: SIMULATION PARAMETERS:
Info: TIMESTEP               1
Info: NUMBER OF STEPS        0
Info: STEPS PER CYCLE        10
Info: FIRST LDB TIMESTEP     50
Info: LAST LDB TIMESTEP     -1
Info: HOM BACKGROUND SCALING 1
Info: MIN ATOMS PER PATCH    40
Info: INITIAL TEMPERATURE    400
Info: CENTER OF MASS MOVING INITIALLY? NO
Info: DIELECTRIC             1
Info: EXCLUDE                SCALED ONE-FOUR
Info: 1-4 ELECTROSTATICS SCALED BY 1
Info: MODIFIED 1-4 VDW PARAMETERS WILL BE USED
Info: DCD FILENAME           output/1/fold_alanin.job0.1.dcd
Info: DCD FREQUENCY          1000
Info: DCD FIRST STEP         1000
Info: NO EXTENDED SYSTEM TRAJECTORY OUTPUT
Info: NO VELOCITY DCD OUTPUT
Info: NO FORCE DCD OUTPUT
Info: OUTPUT FILENAME        output/1/fold_alanin.job0.1
Info: BINARY OUTPUT FILES WILL BE USED
Info: NO RESTART FILE
Info: SWITCHING ACTIVE
Info: SWITCHING ON           7
Info: SWITCHING OFF          8
Info: PAIRLIST DISTANCE      10
Info: PAIRLIST SHRINK RATE   0.01
Info: PAIRLIST GROW RATE     0.01
Info: PAIRLIST TRIGGER       0.3
Info: PAIRLISTS PER CYCLE    2
Info: PAIRLISTS ENABLED
Info: MARGIN                 10
Info: HYDROGEN GROUP CUTOFF  2.5
Info: PATCH DIMENSION        22.5
Info: ENERGY OUTPUT STEPS    10
Info: CROSSTERM ENERGY INCLUDED IN DIHEDRAL
Info: TIMING OUTPUT STEPS    100
Info: LANGEVIN DYNAMICS ACTIVE
Info: LANGEVIN TEMPERATURE   400
Info: LANGEVIN USING BBK INTEGRATOR
Info: LANGEVIN DAMPING COEFFICIENT IS 10 INVERSE PS
Info: LANGEVIN DYNAMICS APPLIED TO HYDROGENS
Info: USING VERLET I (r-RESPA) MTS SCHEME.
Info: C1 SPLITTING OF LONG RANGE ELECTROSTATICS
Info: PLACING ATOMS IN PATCHES BY HYDROGEN GROUPS
Info: RANDOM NUMBER SEED     7498
Info: USE HYDROGEN BONDS?    NO
Info: COORDINATE PDB         unfolded.pdb
Info: STRUCTURE FILE         alanin.psf
Info: PARAMETER file: XPLOR format! (default)
Info: PARAMETERS             alanin.params
Info: USING ARITHMETIC MEAN TO COMBINE L-J SIGMA PARAMETERS
Info: 61 BONDS
Info: 179 ANGLES
Info: 38 DIHEDRAL
Info: 42 IMPROPER
Info: 0 CROSSTERM
Info: 21 VDW
Info: 0 VDW_PAIRS
Info: 0 NBTHOLE_PAIRS
Info: STRUCTURE SUMMARY:
Info: 66 ATOMS
Info: 65 BONDS
Info: 96 ANGLES
Info: 31 DIHEDRALS
Info: 32 IMPROPERS
Info: 0 CROSSTERMS
Info: 0 EXCLUSIONS
Info: 198 DEGREES OF FREEDOM
Info: 55 HYDROGEN GROUPS
Info: 2 ATOMS IN LARGEST HYDROGEN GROUP
Info: 55 MIGRATION GROUPS
Info: 2 ATOMS IN LARGEST MIGRATION GROUP
Info: TOTAL MASS = 783.886 amu
Info: TOTAL CHARGE = 8.19564e-08 e
Info: ADDED 285 IMPLICIT EXCLUSIONS
Info: REMOVING COM VELOCITY -0.269421 0.565316 -0.544914
Info: NONBONDED TABLE R-SQUARED SPACING: 0.0625
Info: NONBONDED TABLE SIZE: 705 POINTS
TCL: Running for 100 steps
ETITLE: TS BOND ANGLE DIHED IMPRP ELECT VDW BOUNDARY MISC KINETIC TOTAL TEMP POTENTIAL TOTAL3 TEMPAVG
ENERGY: 0 44.6127 52.1232 8.6023 20.3617 15.4480 6.6678 0.0000 0.0000 78.4887 226.3044 398.9629 147.8156 226.7679 398.9629
ENERGY: 20 34.7154 40.9339 9.7137 12.7478 17.6412 -1.6136 0.0000 0.0000 103.6127 217.7512 526.6696 114.1385 217.5389 510.6947
ENERGY: 40 36.3313 44.8279 9.7344 14.6062 16.6837 -9.4046 0.0000 0.0000 99.4057 212.1845 505.2852 112.7788 212.2216 498.1119
ENERGY: 60 34.2765 41.6720 13.3430 15.1597 13.1732 -11.7474 0.0000 0.0000 96.1187 201.9957 488.5773 105.8770 203.2694 486.8549
ENERGY: 80 34.3824 40.7603 11.5447 15.7277 10.7551 -9.2006 0.0000 0.0000 97.4123 201.3818 495.1523 103.9696 202.6508 516.2289
ENERGY: 100 30.2333 37.2837 12.8402 14.5032 14.3704 -10.1826 0.0000 0.0000 98.8577 197.9059 502.4996 99.0481 199.7068 479.8302
TCL: Running for 100 steps
ETITLE: TS BOND ANGLE DIHED IMPRP ELECT VDW BOUNDARY MISC KINETIC TOTAL TEMP POTENTIAL TOTAL3 TEMPAVG
ENERGY: 100 30.2333 37.2837 12.8402 14.5032 14.3704 -10.1826 0.0000 0.0000 98.8577 197.9059 502.4996 99.0481 198.1687 502.4996
ENERGY: 120 35.1232 39.6038 6.7572 14.8365 9.4734 -9.3389 0.0000 0.0000 91.9770 188.4323 467.5247 96.4552 186.5169 523.2174
ENERGY: 140 42.7876 30.2421 8.5751 13.5024 1.2343 0.4829 0.0000 0.0000 82.4443 179.2686 419.0694 96.8243 178.6793 488.2267
ENERGY: 160 33.5846 28.2176 10.0841 13.7481 4.4244 1.4180 0.0000 0.0000 76.1029 167.5797 386.8353 91.4768 167.4371 426.0727
ENERGY: 180 26.1507 41.5846 11.3496 13.1547 5.0731 -8.5812 0.0000 0.0000 77.4783 166.2099 393.8270 88.7315 166.7351 425.1114
ENERGY: 200 30.8463 30.7581 8.7195 8.2091 12.1873 -13.4396 0.0000 0.0000 81.4638 158.7445 414.0851 77.2807 158.3959 435.1696
TCL: Running for 100 steps
ETITLE: TS BOND ANGLE DIHED IMPRP ELECT VDW BOUNDARY MISC KINETIC TOTAL TEMP POTENTIAL TOTAL3 TEMPAVG
ENERGY: 200 30.8463 30.7581 8.7195 8.2091 12.1873 -13.4396 0.0000 0.0000 81.4638 158.7445 414.0851 77.2807 159.5010 414.0851
ENERGY: 220 25.0113 42.4237 9.1995 12.8743 12.7911 -11.5049 0.0000 0.0000 69.5871 160.3822 353.7155 90.7951 160.5777 378.0290
ENERGY: 240 29.5180 42.1715 10.1892 9.3672 10.8280 -15.4242 0.0000 0.0000 75.4653 162.1151 383.5947 86.6497 162.8982 353.4449
ENERGY: 260 28.2682 31.6570 12.5467 9.1699 14.9783 -14.3237 0.0000 0.0000 74.9380 157.2344 380.9142 82.2964 157.1170 398.0422
ENERGY: 280 24.9677 32.9316 13.7970 12.3867 8.5942 -7.8477 0.0000 0.0000 72.3748 157.2042 367.8855 84.8294 157.3774 349.1088
ENERGY: 300 29.1668 30.3696 10.3086 8.4886 6.0385 -1.5633 0.0000 0.0000 72.8920 155.7008 370.5141 82.8088 155.4870 384.2377
TCL: Running for 100 steps
ETITLE: TS BOND ANGLE DIHED IMPRP ELECT VDW BOUNDARY MISC KINETIC TOTAL TEMP POTENTIAL TOTAL3 TEMPAVG
ENERGY: 300 29.1668 30.3696 10.3086 8.4886 6.0385 -1.5633 0.0000 0.0000 72.8920 155.7008 370.5141 82.8088 156.0848 370.5141
ENERGY: 320 30.0128 27.4010 8.0371 9.7726 4.1854 -4.2198 0.0000 0.0000 85.3928 160.5819 434.0566 75.1891 161.4812 422.9152
ENERGY: 340 33.4338 33.5077 8.3731 12.1033 5.5868 -6.8217 0.0000 0.0000 95.4306 181.6136 485.0795 86.1829 183.4774 469.6193
ENERGY: 360 28.9867 51.8127 7.3560 12.6865 3.3324 -11.4882 0.0000 0.0000 86.7206 179.4066 440.8058 92.6860 179.8896 443.7530
ENERGY: 380 29.2787 37.3793 9.5941 13.7793 6.7280 -10.0500 0.0000 0.0000 103.6225 190.3319 526.7192 86.7094 191.3014 469.8572
ENERGY: 400 34.6438 38.5402 10.0213 12.1162 7.5987 -8.8027 0.0000 0.0000 95.8258 189.9434 487.0882 94.1176 190.5396 518.6868
TCL: Running for 100 steps
ETITLE: TS BOND ANGLE DIHED IMPRP ELECT VDW BOUNDARY MISC KINETIC TOTAL TEMP POTENTIAL TOTAL3 TEMPAVG
ENERGY: 400 34.6438 38.5402 10.0213 12.1162 7.5987 -8.8027 0.0000 0.0000 95.8258 189.9434 487.0882 94.1176 190.2355 487.0882
ENERGY: 420 29.3655 41.3771 7.2816 14.5902 6.2933 -12.0141 0.0000 0.0000 103.1270 190.0207 524.2009 86.8936 190.1754 485.4062
ENERGY: 440 26.8294 38.7536 8.1257 15.2786 9.2029 -10.6878 0.0000 0.0000 96.9378 184.4402 492.7404 87.5025 185.5885 469.3511
ENERGY: 460 30.0121 38.2883 10.4351 15.5123 4.8333 -1.5424 0.0000 0.0000 88.8792 186.4178 451.7781 97.5386 186.8440 480.0201
ENERGY: 480 29.2367 33.7211 7.4969 18.1959 3.5775 -5.1042 0.0000 0.0000 86.7258 173.8496 440.8322 87.1239 172.9751 442.6697
ENERGY: 500 40.7269 34.9485 9.6231 14.2896 -4.0507 -6.8849 0.0000 0.0000 80.5871 169.2397 409.6290 88.6526 169.0862 464.9239
TCL: Running for 100 steps
ETITLE: TS BOND ANGLE DIHED IMPRP ELECT VDW BOUNDARY MISC KINETIC TOTAL TEMP POTENTIAL TOTAL3 TEMPAVG
ENERGY: 500 40.7269 34.9485 9.6231 14.2896 -4.0507 -6.8849 0.0000 0.0000 80.5871 169.2397 409.6290 88.6526 169.7375 409.6290
ENERGY: 520 28.4893 38.1749 8.4760 11.7495 -1.5356 -13.4746 0.0000 0.0000 90.9209 162.8004 462.1562 71.8795 162.5395 489.9069
ENERGY: 540 24.2466 42.7308 7.5774 20.1351 1.9192 -10.9575 0.0000 0.0000 76.8545 162.5062 390.6562 85.6517 162.0645 411.3973
ENERGY: 560 26.9816 39.3685 5.8189 11.5560 -0.2610 -6.2722 0.0000 0.0000 79.5558 156.7477 404.3871 77.1918 157.0632 416.5292
ENERGY: 580 23.3521 36.9191 2.7139 10.5588 5.6263 -10.2878 0.0000 0.0000 84.7708 153.6533 430.8949 68.8825 153.0208 428.1288
ENERGY: 600 29.2487 35.8947 6.9778 7.2367 5.3665 -7.8610 0.0000 0.0000 72.5582 149.4215 368.8175 76.8633 149.6127 378.6362
TCL: Running for 100 steps
ETITLE: TS BOND ANGLE DIHED IMPRP ELECT VDW BOUNDARY MISC KINETIC TOTAL TEMP POTENTIAL TOTAL3 TEMPAVG
ENERGY: 600 29.2487 35.8947 6.9778 7.2367 5.3665 -7.8610 0.0000 0.0000 72.5582 149.4215 368.8175 76.8633 149.7306 368.8175
ENERGY: 620 25.9947 21.8479 5.3938 21.5227 1.5210 -4.3475 0.0000 0.0000 76.4792 148.4118 388.7485 71.9326 149.1073 399.5836
ENERGY: 640 27.3014 28.5187 6.4128 12.7593 3.8584 2.7499 0.0000 0.0000 76.9585 158.5591 391.1847 81.6006 157.7870 403.7211
ENERGY: 660 24.7031 27.4903 5.0036 12.8062 -2.2503 -1.7070 0.0000 0.0000 85.1012 151.1470 432.5742 66.0459 152.3460 437.3468
ENERGY: 680 34.8375 31.5327 4.4328 13.5686 -3.1809 -3.2655 0.0000 0.0000 76.5473 154.4723 389.0943 77.9251 154.3011 418.6550
ENERGY: 700 38.3965 31.2965 4.8646 13.4100 -4.5006 -4.9367 0.0000 0.0000 71.0767 149.6071 361.2872 78.5304 148.5022 398.4048
TCL: Running for 100 steps
ETITLE: TS BOND ANGLE DIHED IMPRP ELECT VDW BOUNDARY MISC KINETIC TOTAL TEMP POTENTIAL TOTAL3 TEMPAVG
ENERGY: 700 38.3965 31.2965 4.8646 13.4100 -4.5006 -4.9367 0.0000 0.0000 71.0767 149.6071 361.2872 78.5304 149.8884 361.2872
ENERGY: 720 25.1586 32.7227 8.1244 13.4675 1.2589 -9.1142 0.0000 0.0000 78.8901 150.5081 401.0032 71.6180 151.8410 382.7341
ENERGY: 740 25.4602 34.5768 5.5338 14.2860 1.2911 -6.5063 0.0000 0.0000 63.5944 138.2361 323.2542 74.6416 138.0329 367.6846
ENERGY: 760 24.8260 33.3930 4.6315 14.5650 1.7667 -4.3470 0.0000 0.0000 72.5106 147.3460 368.5757 74.8354 146.6209 379.2510
ENERGY: 780 41.2781 32.0246 3.1180 15.7706 -3.8253 -6.7027 0.0000 0.0000 71.0994 152.7628 361.4024 81.6634 154.3538 413.5718
ENERGY: 800 30.1498 35.9385 7.6595 11.7548 1.8227 -8.3602 0.0000 0.0000 78.5126 157.4777 399.0841 78.9651 158.0318 415.0727
TCL: Running for 100 steps
ETITLE: TS BOND ANGLE DIHED IMPRP ELECT VDW BOUNDARY MISC KINETIC TOTAL TEMP POTENTIAL TOTAL3 TEMPAVG
ENERGY: 800 30.1498 35.9385 7.6595 11.7548 1.8227 -8.3602 0.0000 0.0000 78.5126 157.4777 399.0841 78.9651 157.5792 399.0841
ENERGY: 820 33.2337 29.7128 3.8090 16.9657 -0.1755 -8.4280 0.0000 0.0000 86.1829 161.3005 438.0728 75.1176 162.1482 413.0353
ENERGY: 840 28.0262 33.4098 6.0888 9.8692 -2.6694 -1.9123 0.0000 0.0000 76.6120 149.4244 389.4234 72.8124 149.7169 383.7523
ENERGY: 860 34.6611 32.0062 4.9673 16.2002 -0.6274 -14.0278 0.0000 0.0000 83.2774 156.4570 423.3039 73.1796 156.3261 461.3556
ENERGY: 880 27.7132 46.6188 4.5542 11.5806 -0.7053 -15.4809 0.0000 0.0000 84.6327 158.9132 430.1932 74.2805 159.4853 403.0638
ENERGY: 900 23.5040 36.2290 7.8246 9.9327 -0.8930 -12.5509 0.0000 0.0000 88.4906 152.5369 449.8028 64.0463 153.0090 401.4687
TCL: Running for 100 steps
ETITLE: TS BOND ANGLE DIHED IMPRP ELECT VDW BOUNDARY MISC KINETIC TOTAL TEMP POTENTIAL TOTAL3 TEMPAVG
ENERGY: 900 23.5040 36.2290 7.8246 9.9327 -0.8930 -12.5509 0.0000 0.0000 88.4906 152.5369 449.8028 64.0463 153.3261 449.8028
ENERGY: 920 24.0288 27.3368 6.1353 16.7953 0.2674 -5.3326 0.0000 0.0000 88.8230 158.0541 451.4925 69.2311 158.9870 411.1433
ENERGY: 940 30.2065 37.1362 6.9192 13.0588 0.2403 -4.6375 0.0000 0.0000 75.5276 158.4510 383.9110 82.9234 158.9873 388.9153
ENERGY: 960 27.8787 35.3431 3.7027 17.2798 -8.7680 1.8754 0.0000 0.0000 78.8994 156.2110 401.0503 77.3116 157.7231 402.9889
ENERGY: 980 27.9443 37.0804 4.5425 7.5086 -7.2640 -1.9325 0.0000 0.0000 91.4209 159.3000 464.6977 67.8792 160.6290 422.6983
ENERGY: 1000 29.4913 44.2923 3.2100 11.0281 -10.1284 -2.5714 0.0000 0.0000 82.1858 157.5076 417.7552 75.3218 157.8368 409.0360
TCL: Running for 100 steps
ETITLE: TS BOND ANGLE DIHED IMPRP ELECT VDW BOUNDARY MISC KINETIC TOTAL TEMP POTENTIAL TOTAL3 TEMPAVG
ENERGY: 1000 29.4913 44.2923 3.2100 11.0281 -10.1284 -2.5714 0.0000 0.0000 82.1858 157.5076 417.7552 75.3218 157.7944 417.7552
ENERGY: 1020 36.0869 37.5482 3.7422 12.1790 -9.2470 -2.7098 0.0000 0.0000 74.5814 152.1808 379.1018 77.5994 152.0891 412.3063
ENERGY: 1040 39.6933 41.4301 3.3852 11.9149 -7.5162 -4.1974 0.0000 0.0000 67.8736 152.5836 345.0055 84.7101 151.5559 415.4610
ENERGY: 1060 33.3393 48.3807 2.9132 10.7186 -8.5998 -6.8444 0.0000 0.0000 82.2825 162.1902 418.2470 79.9077 163.0286 429.7700
ENERGY: 1080 42.8207 36.6634 5.7674 8.6439 -6.7521 -9.2794 0.0000 0.0000 83.0611 160.9249 422.2043 77.8638 161.2499 454.0153
ENERGY: 1100 34.6188 33.1379 4.3677 15.0470 -4.5462 -6.2450 0.0000 0.0000 83.4870 159.8673 424.3693 76.3803 160.6913 429.4735
TCL: Running for 100 steps
ETITLE: TS BOND ANGLE DIHED IMPRP ELECT VDW BOUNDARY MISC KINETIC TOTAL TEMP POTENTIAL TOTAL3 TEMPAVG
ENERGY: 1100 34.6188 33.1379 4.3677 15.0470 -4.5462 -6.2450 0.0000 0.0000 83.4870 159.8673 424.3693 76.3803 160.0039 424.3693
ENERGY: 1120 29.4572 36.8099 5.2998 14.3595 -4.3681 -1.1837 0.0000 0.0000 86.2285 166.6032 438.3046 80.3746 167.7909 431.6668
ENERGY: 1140 33.3591 28.7149 7.6433 10.2985 3.1639 2.7662 0.0000 0.0000 74.8927 160.8386 380.6843 85.9459 160.9253 373.5063
ENERGY: 1160 25.1222 33.7178 5.3884 21.7092 4.7934 -4.7848 0.0000 0.0000 88.9314 174.8776 452.0435 85.9462 175.9281 445.7342
ENERGY: 1180 25.3187 32.4209 5.0496 8.4343 -0.5187 -6.2205 0.0000 0.0000 100.1072 164.5915 508.8508 64.4843 164.8960 456.3308
ENERGY: 1200 24.4351 35.8911 5.1981 11.3128 0.0916 0.0085 0.0000 0.0000 83.1593 160.0965 422.7036 76.9372 161.1984 406.3769
TCL: Running for 100 steps
ETITLE: TS BOND ANGLE DIHED IMPRP ELECT VDW BOUNDARY MISC KINETIC TOTAL TEMP POTENTIAL TOTAL3 TEMPAVG
ENERGY: 1200 24.4351 35.8911 5.1981 11.3128 0.0916 0.0085 0.0000 0.0000 83.1593 160.0965 422.7036 76.9372 160.6302 422.7036
ENERGY: 1220 27.8858 30.0305 7.1687 6.3720 3.0603 3.6511 0.0000 0.0000 79.6827 157.8512 405.0321 78.1684 159.1443 368.8647
ENERGY: 1240 26.6621 32.2531 7.9637 12.2962 -0.1611 -10.0364 0.0000 0.0000 89.3319 158.3094 454.0793 68.9776 159.2896 420.8061
ENERGY: 1260 41.4732 36.3960 8.1938 5.7194 2.9376 -18.1036 0.0000 0.0000 86.2033 162.8197 438.1766 76.6164 163.2499 434.6054
ENERGY: 1280 30.3180 37.9810 7.7076 6.1262 2.9159 -10.2833 0.0000 0.0000 94.5933 169.3585 480.8231 74.7652 171.4667 433.3008
ENERGY: 1300 35.6471 35.8563 4.7347 10.8942 1.5528 -5.6979 0.0000 0.0000 82.3261 165.3132 418.4685 82.9871 165.5918 407.4851
TCL: Running for 100 steps
ETITLE: TS BOND ANGLE DIHED IMPRP ELECT VDW BOUNDARY MISC KINETIC TOTAL TEMP POTENTIAL TOTAL3 TEMPAVG
ENERGY: 1300 35.6471 35.8563 4.7347 10.8942 1.5528 -5.6979 0.0000 0.0000 82.3261 165.3132 418.4685 82.9871 165.7391 418.4685
ENERGY: 1320 33.5267 41.2907 5.3725 10.8482 3.0534 -6.9814 0.0000 0.0000 92.7122 179.8223 471.2618 87.1101 179.0259 468.6500
ENERGY: 1340 33.2099 37.3443 7.8954 10.4342 3.3603 -7.8422 0.0000 0.0000 95.2592 179.6609 484.2080 84.4018 180.1805 457.8718
ENERGY: 1360 34.3284 25.8273 10.0162 9.0939 0.4428 -3.2664 0.0000 0.0000 87.0331 163.4755 442.3945 76.4424 165.0988 430.6215
ENERGY: 1380 33.4682 38.1004 5.3941 10.1584 -5.1702 -4.5289 0.0000 0.0000 94.7335 172.1553 481.5361 77.4218 172.7310 432.8256
ENERGY: 1400 34.0769 40.9109 6.4211 14.1463 -6.4242 -7.6492 0.0000 0.0000 95.4389 176.9208 485.1218 81.4818 177.0540 503.9776
TCL: Running for 100 steps
ETITLE: TS BOND ANGLE DIHED IMPRP ELECT VDW BOUNDARY MISC KINETIC TOTAL TEMP POTENTIAL TOTAL3 TEMPAVG
ENERGY: 1400 34.0769 40.9109 6.4211 14.1463 -6.4242 -7.6492 0.0000 0.0000 95.4389 176.9208 485.1218 81.4818 177.1738 485.1218
ENERGY: 1420 31.1798 40.5078 5.3443 11.9422 -2.3229 -15.7970 0.0000 0.0000 97.5014 168.3558 495.6057 70.8543 167.9220 469.9417
ENERGY: 1440 32.4026 41.5862 4.5851 11.0012 0.8118 -10.7901 0.0000 0.0000 91.8592 171.4561 466.9260 79.5968 172.8668 442.1246
ENERGY: 1460 35.1819 31.9963 5.2826 7.9156 3.5275 -4.5173 0.0000 0.0000 96.4920 175.8786 490.4744 79.3867 175.1804 482.1462
ENERGY: 1480 24.1041 32.6246 7.3312 11.8408 3.2323 1.9743 0.0000 0.0000 91.4796 172.5870 464.9962 81.1074 173.3025 441.8081
ENERGY: 1500 31.5857 38.1551 5.4696 14.2629 0.5688 -6.7839 0.0000 0.0000 98.8049 182.0631 502.2311 83.2582 183.2823 430.5404
TCL: Running for 100 steps
ETITLE: TS BOND ANGLE DIHED IMPRP ELECT VDW BOUNDARY MISC KINETIC TOTAL TEMP POTENTIAL TOTAL3 TEMPAVG
ENERGY: 1500 31.5857 38.1551 5.4696 14.2629 0.5688 -6.7839 0.0000 0.0000 98.8049 182.0631 502.2311 83.2582 182.1055 502.2311
ENERGY: 1520 35.1465 34.8880 3.7784 10.7727 0.0262 -8.5451 0.0000 0.0000 90.3253 166.3919 459.1287 76.0666 167.0101 486.5898
ENERGY: 1540 32.4867 45.6851 3.9880 15.3281 -8.4705 -6.7088 0.0000 0.0000 83.4803 165.7888 424.3354 82.3085 166.6034 435.1210
ENERGY: 1560 36.2102 41.9444 6.3462 14.8554 -5.4194 -8.9281 0.0000 0.0000 83.2324 168.2411 423.0751 85.0087 167.4701 467.9089
ENERGY: 1580 30.5144 41.6317 6.4580 15.3525 -3.2352 -6.1209 0.0000 0.0000 75.2141 159.8147 382.3176 84.6006 159.8192 452.4610
ENERGY: 1600 24.2172 30.2600 5.8167 12.1401 -7.2935 0.7362 0.0000 0.0000 85.1595 151.0363 432.8708 65.8768 152.3383 435.5892
TCL: Running for 100 steps
ETITLE: TS BOND ANGLE DIHED IMPRP ELECT VDW BOUNDARY MISC KINETIC TOTAL TEMP POTENTIAL TOTAL3 TEMPAVG
ENERGY: 1600 24.2172 30.2600 5.8167 12.1401 -7.2935 0.7362 0.0000 0.0000 85.1595 151.0363 432.8708 65.8768 151.7413 432.8708
ENERGY: 1620 25.8968 20.8189 5.6693 8.2289 -0.4132 3.6688 0.0000 0.0000 83.0975 146.9670 422.3894 63.8695 147.1182 405.0892
ENERGY: 1640 23.1443 34.2609 5.3063 15.1530 1.3382 -5.1440 0.0000 0.0000 81.5534 155.6122 414.5410 74.0587 155.3836 397.5895
ENERGY: 1660 20.3389 34.0650 6.9866 9.8254 5.6349 -9.3061 0.0000 0.0000 78.9900 146.5348 401.5109 67.5448 147.6986 424.9610
ENERGY: 1680 28.6919 38.3808 7.6516 9.8846 1.0228 -9.1791 0.0000 0.0000 71.0754 147.5280 361.2806 76.4526 148.1525 351.0160
ENERGY: 1700 22.5696 32.3852 4.9106 8.2820 3.3302 -9.8356 0.0000 0.0000 85.9113 147.5532 436.6920 61.6420 147.2941 393.7222
TCL: Setting parameter langevinTemp to 300.00
TCL: Running for 100 steps
ETITLE: TS BOND ANGLE DIHED IMPRP ELECT VDW BOUNDARY MISC KINETIC TOTAL TEMP POTENTIAL TOTAL3 TEMPAVG
ENERGY: 1700 22.5696 32.3852 4.9106 8.2820 3.3302 -9.8356 0.0000 0.0000 64.4334 126.0754 327.5190 61.6420 126.6002 327.5190
ENERGY: 1720 21.2485 37.3874 5.0440 9.3350 -7.0502 -11.1022 0.0000 0.0000 68.9066 123.7692 350.2564 54.8626 124.7233 324.3102
ENERGY: 1740 30.1740 28.8129 6.1926 6.6463 -10.4107 -4.6755 0.0000 0.0000 63.2306 119.9702 321.4049 56.7396 119.3978 327.4789
ENERGY: 1760 19.3841 28.7611 5.2344 6.3586 -6.0817 4.5686 0.0000 0.0000 53.6250 111.8501 272.5793 58.2250 111.8647 279.0599
ENERGY: 1780 16.9233 24.2544 5.1177 6.4337 -7.4025 4.9803 0.0000 0.0000 62.5913 112.8982 318.1552 50.3069 113.0852 286.0334
ENERGY: 1800 27.6307 29.2975 5.2689 4.6375 -2.6932 -7.4972 0.0000 0.0000 56.4872 113.1312 287.1279 56.6440 113.1606 295.9771
TCL: Running for 100 steps
ETITLE: TS BOND ANGLE DIHED IMPRP ELECT VDW BOUNDARY MISC KINETIC TOTAL TEMP POTENTIAL TOTAL3 TEMPAVG
ENERGY: 1800 27.6307 29.2975 5.2689 4.6375 -2.6932 -7.4972 0.0000 0.0000 56.4872 113.1312 287.1279 56.6440 113.2794 287.1279
ENERGY: 1820 17.8414 34.9800 6.6069 10.1787 -3.3326 -12.6920 0.0000 0.0000 49.3468 102.9293 250.8330 53.5825 103.2260 272.8687
ENERGY: 1840 21.6130 33.5799 6.4553 5.6647 -0.7194 -14.1806 0.0000 0.0000 50.9803 103.3932 259.1358 52.4129 102.9572 271.1589
ENERGY: 1860 17.6262 26.0378 6.8856 5.9328 2.3885 -11.9199 0.0000 0.0000 54.0858 101.0368 274.9212 46.9510 101.5452 248.0441
ENERGY: 1880 14.6583 28.7483 7.0373 8.3308 -3.2459 -6.3076 0.0000 0.0000 53.1206 102.3418 270.0149 49.2212 103.0225 263.4702
ENERGY: 1900 18.0063 25.3615 5.9458 10.7103 -6.4114 -4.0925 0.0000 0.0000 59.5107 109.0306 302.4964 49.5199 109.4998 279.8000
TCL: Running for 100 steps
ETITLE: TS BOND ANGLE DIHED IMPRP ELECT VDW BOUNDARY MISC KINETIC TOTAL TEMP POTENTIAL TOTAL3 TEMPAVG
ENERGY: 1900 18.0063 25.3615 5.9458 10.7103 -6.4114 -4.0925 0.0000 0.0000 59.5107 109.0306 302.4964 49.5199 109.2160 302.4964
ENERGY: 1920 17.9957 28.4874 6.4528 10.5528 -7.0435 -7.9445 0.0000 0.0000 62.4246 110.9254 317.3079 48.5008 112.0228 316.2577
ENERGY: 1940 21.2018 34.3129 3.8309 14.0101 -12.5730 -7.3456 0.0000 0.0000 58.0316 111.4688 294.9778 53.4373 112.3844 313.9374
ENERGY: 1960 19.3887 37.1692 4.7707 10.3934 -11.7617 -5.5868 0.0000 0.0000 56.4893 110.8627 287.1385 54.3734 111.7217 291.5771
ENERGY: 1980 22.5024 30.6205 3.6458 6.8263 -10.9739 -5.5894 0.0000 0.0000 56.4344 103.4661 286.8596 47.0317 104.1075 257.7469
ENERGY: 2000 18.1578 31.7675 3.9579 11.1059 -11.5976 -8.9149 0.0000 0.0000 58.9589 103.4356 299.6917 44.4766 102.9268 305.1191
TCL: Running for 100 steps
ETITLE: TS BOND ANGLE DIHED IMPRP ELECT VDW BOUNDARY MISC KINETIC TOTAL TEMP POTENTIAL TOTAL3 TEMPAVG
ENERGY: 2000 18.1578 31.7675 3.9579 11.1059 -11.5976 -8.9149 0.0000 0.0000 58.9589 103.4356 299.6917 44.4766 103.8792 299.6917
ENERGY: 2020 24.6750 27.8218 5.5293 10.3204 -4.0181 -10.3861 0.0000 0.0000 53.2453 107.1876 270.6491 53.9422 106.9677 290.2127
ENERGY: 2040 16.1560 35.4564 6.3510 10.3313 -2.4294 -11.8114 0.0000 0.0000 58.0861 112.1400 295.2551 54.0539 112.1910 310.7770
ENERGY: 2060 28.6602 28.7796 3.9620 8.9394 -3.0115 -10.3888 0.0000 0.0000 52.5372 109.4780 267.0496 56.9408 110.3760 292.1863
ENERGY: 2080 15.9402 38.2809 2.9659 7.7875 0.6930 -10.7932 0.0000 0.0000 54.9550 109.8293 279.3393 54.8744 110.0672 295.0316
ENERGY: 2100 17.2383 31.2743 3.2411 9.7872 -2.9270 -8.6554 0.0000 0.0000 66.2324 116.1910 336.6635 49.9585 116.0734 322.4132
TCL: Running for 100 steps
ETITLE: TS BOND ANGLE DIHED IMPRP ELECT VDW BOUNDARY MISC KINETIC TOTAL TEMP POTENTIAL TOTAL3 TEMPAVG
ENERGY: 2100 17.2383 31.2743 3.2411 9.7872 -2.9270 -8.6554 0.0000 0.0000 66.2324 116.1910 336.6635 49.9585 116.5639 336.6635
ENERGY: 2120 18.1063 34.5175 4.3659 9.9574 -10.8515 -3.2537 0.0000 0.0000 55.1018 107.9436 280.0857 52.8418 108.1991 315.2043
ENERGY: 2140 23.9629 25.4815 5.4666 10.0518 -3.9385 -9.0128 0.0000 0.0000 62.0635 114.0749 315.4723 52.0115 115.2751 307.2583
ENERGY: 2160 25.4546 28.5337 5.6513 7.5221 -5.6703 -7.1441 0.0000 0.0000 61.5431 115.8905 312.8275 54.3473 116.5751 298.7151
ENERGY: 2180 22.7417 28.1474 5.2563 11.1095 -9.7872 -0.2040 0.0000 0.0000 58.4842 115.7478 297.2785 57.2637 116.3690 290.2742
ENERGY: 2200 20.1100 27.0443 4.8016 8.5284 -8.8678 -0.6656 0.0000 0.0000 62.4693 113.4202 317.5353 50.9509 114.1286 296.8063
TCL: Running for 100 steps
ETITLE: TS BOND ANGLE DIHED IMPRP ELECT VDW BOUNDARY MISC KINETIC TOTAL TEMP POTENTIAL TOTAL3 TEMPAVG
ENERGY: 2200 20.1100 27.0443 4.8016 8.5284 -8.8678 -0.6656 0.0000 0.0000 62.4693 113.4202 317.5353 50.9509 113.8302 317.5353
ENERGY: 2220 20.1350 33.0068 3.2732 9.8391 -4.5939 -10.2064 0.0000 0.0000 59.4733 110.9272 302.3063 51.4539 110.4800 298.0641
ENERGY: 2240 18.4674 34.6071 2.8100 7.1204 0.8972 -14.5175 0.0000 0.0000 62.2281 111.6127 316.3089 49.3847 111.7528 294.4154
ENERGY: 2260 19.2490 30.6793 4.5649 8.2340 1.0688 -11.7143 0.0000 0.0000 58.7427 110.8245 298.5928 52.0818 111.8600 273.3224
ENERGY: 2280 18.9615 31.2635 3.6231 9.2802 -3.6881 -8.3816 0.0000 0.0000 55.2856 106.3442 281.0198 51.0587 107.2059 284.9338
ENERGY: 2300 20.3274 27.5563 5.6939 8.7120 -1.7709 -8.9819 0.0000 0.0000 53.1170 104.6537 269.9970 51.5367 105.2489 272.4175
TCL: Running for 100 steps
ETITLE: TS BOND ANGLE DIHED IMPRP ELECT VDW BOUNDARY MISC KINETIC TOTAL TEMP POTENTIAL TOTAL3 TEMPAVG
ENERGY: 2300 20.3274 27.5563 5.6939 8.7120 -1.7709 -8.9819 0.0000 0.0000 53.1170 104.6537 269.9970 51.5367 104.7203 269.9970
ENERGY: 2320 23.8807 25.8302 5.9557 8.2460 -3.7841 -8.2637 0.0000 0.0000 59.0522 110.9170 300.1657 51.8648 110.0329 295.1033
ENERGY: 2340 26.1808 22.6354 5.8173 10.5701 -4.5095 -3.8480 0.0000 0.0000 58.2105 115.0565 295.8875 56.8460 115.4033 288.8121
ENERGY: 2360 23.6910 24.1809 4.9808 8.7296 -2.9637 -6.9812 0.0000 0.0000 54.5070 106.1443 277.0623 51.6373 106.5071 309.7072
ENERGY: 2380 19.8849 28.7935 4.9024 7.9085 -3.3058 -5.7548 0.0000 0.0000 57.0524 109.4810 290.0005 52.4287 109.6777 276.8614
ENERGY: 2400 22.1360 22.9024 4.8201 6.8677 -2.4863 -7.8289 0.0000 0.0000 66.1928 112.6038 336.4620 46.4110 112.0339 308.7959
TCL: Running for 100 steps
ETITLE: TS BOND ANGLE DIHED IMPRP ELECT VDW BOUNDARY MISC KINETIC TOTAL TEMP POTENTIAL TOTAL3 TEMPAVG
ENERGY: 2400 22.1360 22.9024 4.8201 6.8677 -2.4863 -7.8289 0.0000 0.0000 66.1928 112.6038 336.4620 46.4110 112.8007 336.4620
ENERGY: 2420 22.2597 33.8649 3.9484 7.3303 -5.2750 -8.6958 0.0000 0.0000 59.3694 112.8019 301.7782 53.4325 113.0037 316.3987
ENERGY: 2440 22.3864 26.4426 4.8340 9.6893 -3.5753 -8.6250 0.0000 0.0000 55.7459 106.8978 283.3596 51.1519 107.0460 297.4723
ENERGY: 2460 21.7641 28.3885 4.6984 11.8794 -3.5632 -11.1994 0.0000 0.0000 55.1059 107.0737 280.1067 51.9678 106.8357 278.6305
ENERGY: 2480 23.0163 28.3326 3.9236 8.1059 -4.4791 -10.3225 0.0000 0.0000 52.0720 100.6489 264.6849 48.5769 100.1249 274.6247
ENERGY: 2500 21.8733 28.5061 5.2099 6.8359 -5.5314 -8.2372 0.0000 0.0000 54.2627 102.9193 275.8204 48.6566 104.1513 290.7840
TCL: Running for 100 steps
ETITLE: TS BOND ANGLE DIHED IMPRP ELECT VDW BOUNDARY MISC KINETIC TOTAL TEMP POTENTIAL TOTAL3 TEMPAVG
ENERGY: 2500 21.8733 28.5061 5.2099 6.8359 -5.5314 -8.2372 0.0000 0.0000 54.2627 102.9193 275.8204 48.6566 102.9115 275.8204
ENERGY: 2520 20.3225 23.7353 4.2841 9.9277 -4.7509 -2.1873 0.0000 0.0000 52.7307 104.0620 268.0331 51.3313 103.9592 284.8743
ENERGY: 2540 24.1099 25.9642 4.5502 9.6978 -8.2593 -3.9022 0.0000 0.0000 57.4418 109.6025 291.9800 52.1608 109.3177 291.2681
ENERGY: 2560 22.6618 35.9551 3.9738 10.5607 -10.0567 -12.3165 0.0000 0.0000 59.8172 110.5954 304.0543 50.7782 110.1872 285.4230
ENERGY: 2580 18.0441 33.1689 5.9739 11.2642 -9.1411 -11.2338 0.0000 0.0000 60.6859 108.7621 308.4698 48.0763 108.4448 315.5466
ENERGY: 2600 20.1344 32.5261 5.7632 8.3126 -10.7590 -6.6999 0.0000 0.0000 64.4120 113.6893 327.4100 49.2773 115.0664 313.8497
TCL: Running for 100 steps
ETITLE: TS BOND ANGLE DIHED IMPRP ELECT VDW BOUNDARY MISC KINETIC TOTAL TEMP POTENTIAL TOTAL3 TEMPAVG
ENERGY: 2600 20.1344 32.5261 5.7632 8.3126 -10.7590 -6.6999 0.0000 0.0000 64.4120 113.6893 327.4100 49.2773 113.8708 327.4100
ENERGY: 2620 22.2034 30.9362 4.7401 8.8934 -11.6734 -0.3685 0.0000 0.0000 56.2355 110.9667 285.8484 54.7312 110.6920 307.5412
ENERGY: 2640 19.0423 23.8423 5.6733 10.3282 -4.3724 -5.1930 0.0000 0.0000 66.9141 116.2349 340.1284 49.3207 115.7150 340.2588
ENERGY: 2660 22.0054 22.7544 5.4123 11.5724 -7.1082 -6.2083 0.0000 0.0000 57.0428 105.4709 289.9521 48.4280 105.6360 329.1376
ENERGY: 2680 20.2380 30.0584 6.0913 8.5651 -7.1772 -9.0909 0.0000 0.0000 67.1106 115.7953 341.1273 48.6846 116.4216 316.1673
ENERGY: 2700 18.2629 28.2611 3.2393 6.1816 -6.7721 -7.2012 0.0000 0.0000 67.8364 109.8080 344.8163 41.9716 110.1342 300.4974
TCL: Running for 100 steps
ETITLE: TS BOND ANGLE DIHED IMPRP ELECT VDW BOUNDARY MISC KINETIC TOTAL TEMP POTENTIAL TOTAL3 TEMPAVG
ENERGY: 2700 18.2629 28.2611 3.2393 6.1816 -6.7721 -7.2012 0.0000 0.0000 67.8364 109.8080 344.8163 41.9716 110.2228 344.8163
ENERGY: 2720 19.8599 21.8855 3.9668 8.6597 -6.3089 -7.6175 0.0000 0.0000 73.3171 113.7627 372.6750 40.4456 114.8429 321.4413
ENERGY: 2740 18.5774 29.0553 5.8135 8.6548 -5.3451 -8.2905 0.0000 0.0000 58.0170 106.4825 294.9039 48.4655 106.0185 278.5915
ENERGY: 2760 24.7052 25.8146 3.0915 8.7417 -6.1207 -10.7846 0.0000 0.0000 56.4419 101.8896 286.8977 45.4477 102.9481 269.5548
ENERGY: 2780 21.7265 30.2798 3.6284 5.5826 -9.5332 -7.1835 0.0000 0.0000 51.5953 96.0958 262.2618 44.5005 97.3948 262.1967
ENERGY: 2800 18.7152 27.9742 4.5867 7.0034 -9.1828 -5.3811 0.0000 0.0000 57.2550 100.9707 291.0307 43.7157 100.8140 276.5645
TCL: Running for 100 steps
ETITLE: TS BOND ANGLE DIHED IMPRP ELECT VDW BOUNDARY MISC KINETIC TOTAL TEMP POTENTIAL TOTAL3 TEMPAVG
ENERGY: 2800 18.7152 27.9742 4.5867 7.0034 -9.1828 -5.3811 0.0000 0.0000 57.2550 100.9707 291.0307 43.7157 101.1821 291.0307
ENERGY: 2820 20.5551 25.4139 4.8896 8.9922 -7.7823 -7.2592 0.0000 0.0000 50.0769 94.8863 254.5440 44.8093 94.2765 278.5401
ENERGY: 2840 25.2950 27.0333 3.7767 6.6595 -10.4087 -8.0818 0.0000 0.0000 52.2721 96.5460 265.7021 44.2739 96.5224 257.7559
ENERGY: 2860 31.4202 29.9105 4.1044 7.2089 -9.9304 -10.2301 0.0000 0.0000 44.4054 96.8890 225.7153 52.4836 96.1899 254.3217
ENERGY: 2880 18.3814 28.7145 4.8063 8.9908 -6.8428 -9.7232 0.0000 0.0000 53.9713 98.2983 274.3394 44.3270 98.6818 270.2209
ENERGY: 2900 25.4343 29.3402 6.6957 7.5719 -0.3152 -13.9544 0.0000 0.0000 52.6916 107.4640 267.8345 54.7724 106.5830 289.2749
TCL: Running for 100 steps
ETITLE: TS BOND ANGLE DIHED IMPRP ELECT VDW BOUNDARY MISC KINETIC TOTAL TEMP POTENTIAL TOTAL3 TEMPAVG
ENERGY: 2900 25.4343 29.3402 6.6957 7.5719 -0.3152 -13.9544 0.0000 0.0000 52.6916 107.4640 267.8345 54.7724 107.3915 267.8345
ENERGY: 2920 21.8858 27.7872 9.9546 10.2548 -0.1617 -14.0144 0.0000 0.0000 49.0438 104.7501 249.2927 55.7063 104.6175 264.2591
ENERGY: 2940 17.9686 30.1882 5.1756 7.1574 -0.4006 -12.2237 0.0000 0.0000 56.1556 104.0211 285.4424 47.8655 104.3768 280.0234
ENERGY: 2960 24.9558 24.8446 4.3363 7.2181 -4.5067 -11.9067 0.0000 0.0000 57.7686 102.7100 293.6410 44.9414 103.8747 282.2031
ENERGY: 2980 19.3146 33.8800 4.5859 8.6100 -5.4887 -13.5596 0.0000 0.0000 51.9671 99.3093 264.1520 47.3422 99.0205 272.9382
ENERGY: 3000 29.0927 23.2065 3.4043 7.5697 -7.9939 -9.0819 0.0000 0.0000 62.1117 108.3091 315.7174 46.1974 108.9074 320.1456
TCL: Running for 100 steps
ETITLE: TS BOND ANGLE DIHED IMPRP ELECT VDW BOUNDARY MISC KINETIC TOTAL TEMP POTENTIAL TOTAL3 TEMPAVG
ENERGY: 3000 29.0927 23.2065 3.4043 7.5697 -7.9939 -9.0819 0.0000 0.0000 62.1117 108.3091 315.7174 46.1974 108.3811 315.7174
ENERGY: 3020 21.9380 33.5825 4.7380 5.8060 -8.3792 -8.8177 0.0000 0.0000 53.6924 102.5600 272.9216 48.8676 102.2651 284.3211
ENERGY: 3040 36.8879 28.1097 5.3147 8.3698 -7.1097 -12.6893 0.0000 0.0000 51.8384 110.7215 263.4975 58.8831 110.9714 305.5242
ENERGY: 3060 30.5174 30.1638 3.7407 5.7085 -6.3766 -10.6042 0.0000 0.0000 61.0664 114.2160 310.4039 53.1496 114.0995 313.1830
ENERGY: 3080 24.1202 23.1716 3.8603 6.8396 -5.3131 -10.2971 0.0000 0.0000 69.2479 111.6294 351.9910 42.3815 112.0426 348.7224
ENERGY: 3100 26.8850 19.4726 5.1868 5.8560 -2.0692 -11.8851 0.0000 0.0000 60.4879 103.9342 307.4637 43.4462 104.4580 326.3273
TCL: Running for 100 steps
ETITLE: TS BOND ANGLE DIHED IMPRP ELECT VDW BOUNDARY MISC KINETIC TOTAL TEMP POTENTIAL TOTAL3 TEMPAVG
ENERGY: 3100 26.8850 19.4726 5.1868 5.8560 -2.0692 -11.8851 0.0000 0.0000 60.4879 103.9342 307.4637 43.4462 104.3342 307.4637
ENERGY: 3120 21.7778 28.6294 8.6186 8.6505 -1.3898 -10.5546 0.0000 0.0000 48.0267 103.7587 244.1225 55.7320 104.1924 276.9512
ENERGY: 3140 28.3558 22.7147 9.8997 9.0120 -3.0989 -13.3123 0.0000 0.0000 50.8873 104.4584 258.6633 53.5710 104.7866 272.0462
ENERGY: 3160 26.5990 27.6728 7.4283 8.1349 -6.0207 -11.1827 0.0000 0.0000 53.4327 106.0645 271.6018 52.6317 106.3791 308.8211
ENERGY: 3180 24.2204 24.4870 6.1499 4.3097 -6.7695 -10.3966 0.0000 0.0000 63.9527 105.9536 325.0752 42.0010 106.1504 295.2962
ENERGY: 3200 22.8585 27.8610 6.8405 8.9635 -8.7230 -9.8634 0.0000 0.0000 58.9324 106.8695 299.5569 47.9371 107.7445 282.6261
TCL: Running for 100 steps
ETITLE: TS BOND ANGLE DIHED IMPRP ELECT VDW BOUNDARY MISC KINETIC TOTAL TEMP POTENTIAL TOTAL3 TEMPAVG
ENERGY: 3200 22.8585 27.8610 6.8405 8.9635 -8.7230 -9.8634 0.0000 0.0000 58.9324 106.8695 299.5569 47.9371 107.2170 299.5569
ENERGY: 3220 21.7076 34.1226 6.6116 9.4634 -6.2178 -13.8458 0.0000 0.0000 59.0814 110.9230 300.3142 51.8416 111.9982 293.1400
ENERGY: 3240 28.3115 23.2847 5.0945 14.5032 -5.8445 -12.0303 0.0000 0.0000 65.9451 119.2641 335.2031 53.3189 119.6535 297.1187
ENERGY: 3260 20.8809 34.0298 9.6804 7.4608 -4.5187 -9.9684 0.0000 0.0000 63.6046 121.1696 323.3059 57.5650 122.2672 313.7814
ENERGY: 3280 24.0975 21.6903 4.5639 7.9474 -1.8316 -5.1663 0.0000 0.0000 70.3023 121.6035 357.3507 51.3012 122.3422 338.4124
ENERGY: 3300 28.1990 26.7003 3.1756 5.3625 -6.1842 -4.4978 0.0000 0.0000 65.1839 117.9392 331.3334 52.7553 118.1997 340.3326
TCL: Running for 100 steps
ETITLE: TS BOND ANGLE DIHED IMPRP ELECT VDW BOUNDARY MISC KINETIC TOTAL TEMP POTENTIAL TOTAL3 TEMPAVG
ENERGY: 3300 28.1990 26.7003 3.1756 5.3625 -6.1842 -4.4978 0.0000 0.0000 65.1839 117.9392 331.3334 52.7553 118.1074 331.3334
ENERGY: 3320 19.6056 29.7348 4.1878 8.7946 -5.3337 -6.3593 0.0000 0.0000 58.8244 109.4542 299.0078 50.6298 109.4442 297.1605
ENERGY: 3340 18.3621 26.4439 4.9619 7.7063 -4.4324 -5.3446 0.0000 0.0000 62.2509 109.9482 316.4252 47.6972 110.2209 333.4438
ENERGY: 3360 19.5157 30.7746 3.7648 7.6289 -5.3036 -6.8250 0.0000 0.0000 63.5958 113.1512 323.2611 49.5554 112.8391 314.7958
ENERGY: 3380 26.1132 26.1046 6.0097 5.8870 -0.9582 -11.8625 0.0000 0.0000 70.0164 121.3103 355.8977 51.2938 121.8898 335.3387
ENERGY: 3400 26.6224 28.0557 5.3019 8.9741 -2.4787 -10.8852 0.0000 0.0000 67.5657 123.1559 343.4405 55.5901 123.7079 353.8718
TCL: Running for 100 steps
ETITLE: TS BOND ANGLE DIHED IMPRP ELECT VDW BOUNDARY MISC KINETIC TOTAL TEMP POTENTIAL TOTAL3 TEMPAVG
ENERGY: 3400 26.6224 28.0557 5.3019 8.9741 -2.4787 -10.8852 0.0000 0.0000 67.5657 123.1559 343.4405 55.5901 123.3317 343.4405
ENERGY: 3420 24.7683 29.9134 5.8268 9.1014 -2.1713 -11.3987 0.0000 0.0000 66.1390 122.1790 336.1887 56.0400 121.8938 326.3173
ENERGY: 3440 25.4405 24.3645 6.5670 8.7571 -0.3672 -14.6982 0.0000 0.0000 62.6869 112.7508 318.6414 50.0639 114.0846 323.7732
ENERGY: 3460 19.8266 32.4211 6.1709 8.8627 -1.5929 -9.1212 0.0000 0.0000 55.8452 112.4124 283.8647 56.5672 113.0760 261.3924
ENERGY: 3480 21.7753 21.7452 7.0269 11.8361 0.2373 -10.3203 0.0000 0.0000 62.8367 115.1372 319.4028 52.3005 115.1944 300.7754
ENERGY: 3500 26.4514 28.5885 7.3612 7.5504 2.8170 -12.5947 0.0000 0.0000 57.2554 117.4293 291.0325 60.1739 117.2629 323.7954
TCL: Running for 100 steps
ETITLE: TS BOND ANGLE DIHED IMPRP ELECT VDW BOUNDARY MISC KINETIC TOTAL TEMP POTENTIAL TOTAL3 TEMPAVG
ENERGY: 3500 26.4514 28.5885 7.3612 7.5504 2.8170 -12.5947 0.0000 0.0000 57.2554 117.4293 291.0325 60.1739 117.6641 291.0325
ENERGY: 3520 25.4304 29.1286 6.0324 12.1475 -0.3151 -15.1302 0.0000 0.0000 52.2208 109.5144 265.4413 57.2936 108.7175 295.6571
ENERGY: 3540 17.7479 28.5331 6.1006 7.5081 -0.2429 -10.9453 0.0000 0.0000 59.0739 107.7755 300.2761 48.7016 109.0024 294.1891
ENERGY: 3560 20.0803 24.1865 8.1076 7.2988 1.5829 -8.4383 0.0000 0.0000 55.8813 108.6990 284.0478 52.8177 109.4317 276.9055
ENERGY: 3580 21.2688 29.7900 7.2977 12.3045 -7.4652 -7.8981 0.0000 0.0000 62.3455 117.6434 316.9061 55.2979 118.4998 309.0087
ENERGY: 3600 20.2216 30.2173 7.1537 5.3182 -4.3740 -12.9141 0.0000 0.0000 62.3034 107.9261 316.6921 45.6227 108.3189 302.1857
TCL: Running for 100 steps
ETITLE: TS BOND ANGLE DIHED IMPRP ELECT VDW BOUNDARY MISC KINETIC TOTAL TEMP POTENTIAL TOTAL3 TEMPAVG
ENERGY: 3600 20.2216 30.2173 7.1537 5.3182 -4.3740 -12.9141 0.0000 0.0000 62.3034 107.9261 316.6921 45.6227 108.4183 316.6921
ENERGY: 3620 15.5519 35.3773 6.1007 9.5511 0.4661 -15.1937 0.0000 0.0000 55.4779 107.3313 281.9977 51.8534 107.3920 284.3717
ENERGY: 3640 16.2941 30.7526 6.2864 7.7089 -5.2079 -13.2279 0.0000 0.0000 59.4506 102.0568 302.1907 42.6062 102.8780 284.3265
ENERGY: 3660 14.7705 28.6869 5.6355 8.2983 -3.3125 -8.4279 0.0000 0.0000 62.4719 108.1227 317.5482 45.6508 109.0738 280.4189
ENERGY: 3680 19.4028 22.8852 3.6058 7.1396 -1.0089 -9.0802 0.0000 0.0000 62.3375 105.2818 316.8653 42.9443 104.6502 312.8266
ENERGY: 3700 20.8936 25.8245 4.0694 10.5834 -6.6302 -7.7670 0.0000 0.0000 55.3004 102.2742 281.0953 46.9738 102.5523 289.7454
TCL: Running for 100 steps
ETITLE: TS BOND ANGLE DIHED IMPRP ELECT VDW BOUNDARY MISC KINETIC TOTAL TEMP POTENTIAL TOTAL3 TEMPAVG
ENERGY: 3700 20.8936 25.8245 4.0694 10.5834 -6.6302 -7.7670 0.0000 0.0000 55.3004 102.2742 281.0953 46.9738 102.6015 281.0953
ENERGY: 3720 24.2012 33.9612 4.5772 7.5605 -7.1922 -11.0561 0.0000 0.0000 52.0827 104.1345 264.7397 52.0518 103.6322 274.6421
ENERGY: 3740 21.6628 26.2251 5.7452 5.6976 -10.5059 -7.1055 0.0000 0.0000 59.0888 100.8080 300.3518 41.7192 101.1039 307.4518
ENERGY: 3760 22.7996 26.2887 5.5010 12.1227 -5.0949 -11.4598 0.0000 0.0000 55.0906 105.2480 280.0290 50.1573 105.0451 293.1945
ENERGY: 3780 24.1024 30.6937 6.3943 7.5606 -9.0190 -11.0025 0.0000 0.0000 55.5958 104.3252 282.5966 48.7294 104.3338 297.9837
ENERGY: 3800 22.9793 28.8220 3.2445 10.3792 -6.7111 -12.7236 0.0000 0.0000 56.0141 102.0044 284.7229 45.9903 102.4931 282.3875
TCL: Running for 100 steps
ETITLE: TS BOND ANGLE DIHED IMPRP ELECT VDW BOUNDARY MISC KINETIC TOTAL TEMP POTENTIAL TOTAL3 TEMPAVG
ENERGY: 3800 22.9793 28.8220 3.2445 10.3792 -6.7111 -12.7236 0.0000 0.0000 56.0141 102.0044 284.7229 45.9903 102.3676 284.7229
ENERGY: 3820 20.4174 29.4081 3.7190 8.2266 -6.4847 -10.6438 0.0000 0.0000 58.8478 103.4905 299.1269 44.6427 103.1547 288.3586
ENERGY: 3840 21.6784 29.6198 5.8733 10.3270 -7.2325 -8.4898 0.0000 0.0000 53.2960 105.0723 270.9065 51.7764 105.5686 277.8942
ENERGY: 3860 14.2254 29.9679 4.8832 13.2919 -8.4714 -9.9633 0.0000 0.0000 61.8961 105.8297 314.6217 43.9336 105.4414 313.6661
ENERGY: 3880 23.2364 26.7349 7.9088 9.3434 -8.6687 -6.3069 0.0000 0.0000 50.5415 102.7893 256.9056 52.2478 102.2709 296.3399
ENERGY: 3900 20.1856 27.2750 7.5853 8.2887 -5.9405 -2.5159 0.0000 0.0000 55.3201 110.1983 281.1956 54.8781 110.2229 260.8300
TCL: Running for 100 steps
ETITLE: TS BOND ANGLE DIHED IMPRP ELECT VDW BOUNDARY MISC KINETIC TOTAL TEMP POTENTIAL TOTAL3 TEMPAVG
ENERGY: 3900 20.1856 27.2750 7.5853 8.2887 -5.9405 -2.5159 0.0000 0.0000 55.3201 110.1983 281.1956 54.8781 110.1177 281.1956
ENERGY: 3920 18.0637 24.6384 6.2757 10.5291 -5.6903 -5.1107 0.0000 0.0000 63.2600 111.9660 321.5544 48.7059 111.1991 301.0357
ENERGY: 3940 19.6256 31.0963 7.5947 8.2583 -10.2453 -1.6767 0.0000 0.0000 54.7027 109.3556 278.0570 54.6529 110.0955 309.4407
ENERGY: 3960 20.5455 24.5776 5.7337 11.9746 -3.9931 -10.1817 0.0000 0.0000 59.2617 107.9183 301.2308 48.6566 108.2914 298.5252
ENERGY: 3980 21.1625 29.7387 3.6529 10.5424 -8.2516 -6.8655 0.0000 0.0000 68.2988 118.2782 347.1667 49.9795 119.0343 336.6504
ENERGY: 4000 33.7313 26.2644 5.2375 4.9784 -10.0290 -11.8284 0.0000 0.0000 73.3705 121.7247 372.9465 48.3542 121.9194 365.1861
TCL: Running for 100 steps
