Info: SIMULATION PARAMETERS:
Info: TIMESTEP               1
Info: NUMBER OF STEPS        0
Info: STEPS PER CYCLE        10
Info: FIRST LDB TIMESTEP     50
Info: LAST LDB TIMESTEP     -1
Info: HOM BACKGROUND SCALING 1
Info: MIN ATOMS PER PATCH    40
Info: INITIAL TEMPERATURE    300
Info: CENTER OF MASS MOVING INITIALLY? NO
Info: DIELECTRIC             1
Info: EXCLUDE                SCALED ONE-FOUR
Info: 1-4 ELECTROSTATICS SCALED BY 1
Info: MODIFIED 1-4 VDW PARAMETERS WILL BE USED
Info: DCD FILENAME           output/0/fold_alanin.job0.0.dcd
Info: DCD FREQUENCY          1000
Info: DCD FIRST STEP         1000
Info: NO EXTENDED SYSTEM TRAJECTORY OUTPUT
Info: NO VELOCITY DCD OUTPUT
Info: NO FORCE DCD OUTPUT
Info: OUTPUT FILENAME        output/0/fold_alanin.job0.0
Info: BINARY OUTPUT FILES WILL BE USED
Info: NO RESTART FILE
Info: SWITCHING ACTIVE
Info: SWITCHING ON           7
Info: SWITCHING OFF          8
Info: PAIRLIST DISTANCE      10
Info: PAIRLIST SHRINK RATE   0.01
Info: PAIRLIST GROW RATE     0.01
Info: PAIRLIST TRIGGER       0.3
Info: PAIRLISTS PER CYCLE    2
Info: PAIRLISTS ENABLED
Info: MARGIN                 10
Info: HYDROGEN GROUP CUTOFF  2.5
Info: PATCH DIMENSION        22.5
Info: ENERGY OUTPUT STEPS    10
Info: CROSSTERM ENERGY INCLUDED IN DIHEDRAL
Info: TIMING OUTPUT STEPS    100
Info: LANGEVIN DYNAMICS ACTIVE
Info: LANGEVIN TEMPERATURE   300
Info: LANGEVIN USING BBK INTEGRATOR
Info: LANGEVIN DAMPING COEFFICIENT IS 10 INVERSE PS
Info: LANGEVIN DYNAMICS APPLIED TO HYDROGENS
Info: USING VERLET I (r-RESPA) MTS SCHEME.
Info: C1 SPLITTING OF LONG RANGE ELECTROSTATICS
Info: PLACING ATOMS IN PATCHES BY HYDROGEN GROUPS
Info: RANDOM NUMBER SEED     77871
Info: USE HYDROGEN BONDS?    NO
Info: COORDINATE PDB         unfolded.pdb
Info: STRUCTURE FILE         alanin.psf
Info: PARAMETER file: XPLOR format! (default)
Info: PARAMETERS             alanin.params
Info: USING ARITHMETIC MEAN TO COMBINE L-J SIGMA PARAMETERS
Info: 61 BONDS
Info: 179 ANGLES
Info: 38 DIHEDRAL
Info: 42 IMPROPER
Info: 0 CROSSTERM
Info: 21 VDW
Info: 0 VDW_PAIRS
Info: 0 NBTHOLE_PAIRS
Info: STRUCTURE SUMMARY:
Info: 66 ATOMS
Info: 65 BONDS
Info: 96 ANGLES
Info: 31 DIHEDRALS
Info: 32 IMPROPERS
Info: 0 CROSSTERMS
Info: 0 EXCLUSIONS
Info: 198 DEGREES OF FREEDOM
Info: 55 HYDROGEN GROUPS
Info: 2 ATOMS IN LARGEST HYDROGEN GROUP
Info: 55 MIGRATION GROUPS
Info: 2 ATOMS IN LARGEST MIGRATION GROUP
Info: TOTAL MASS = 783.886 amu
Info: TOTAL CHARGE = 8.19564e-08 e
Info: ADDED 285 IMPLICIT EXCLUSIONS
Info: REMOVING COM VELOCITY -0.420777 0.0798839 0.923907
Info: NONBONDED TABLE R-SQUARED SPACING: 0.0625
Info: NONBONDED TABLE SIZE: 705 POINTS
TCL: Running for 100 steps
ETITLE: TS BOND ANGLE DIHED IMPRP ELECT VDW BOUNDARY MISC KINETIC TOTAL TEMP POTENTIAL TOTAL3 TEMPAVG
ENERGY: 0 44.6127 52.1232 8.6023 20.3617 15.4480 6.6678 0.0000 0.0000 63.6083 211.4239 323.3248 147.8156 211.8875 323.3248
ENERGY: 20 36.8360 36.7958 6.5389 10.0778 15.7260 1.1045 0.0000 0.0000 98.5167 205.5958 500.7664 107.0790 207.0088 468.3909
ENERGY: 40 33.5849 46.7319 5.0428 12.6242 11.5432 -6.5976 0.0000 0.0000 89.9454 192.8749 457.1979 102.9295 193.0348 466.6471
ENERGY: 60 33.9834 36.1883 8.0774 9.4619 13.0135 -11.6717 0.0000 0.0000 83.9571 173.0099 426.7588 89.0528 174.6316 434.7613
ENERGY: 80 41.7698 34.4286 5.9779 14.7763 10.3423 -7.6304 0.0000 0.0000 69.0921 168.7566 351.1994 99.6644 169.3840 394.6752
ENERGY: 100 25.1420 34.1475 8.3371 11.8395 12.9029 -11.0341 0.0000 0.0000 81.1974 162.5324 412.7311 81.3350 162.1476 395.7651
TCL: Running for 100 steps
ETITLE: TS BOND ANGLE DIHED IMPRP ELECT VDW BOUNDARY MISC KINETIC TOTAL TEMP POTENTIAL TOTAL3 TEMPAVG
ENERGY: 100 25.1420 34.1475 8.3371 11.8395 12.9029 -11.0341 0.0000 0.0000 81.1974 162.5324 412.7311 81.3350 163.0944 412.7311
ENERGY: 120 30.5245 30.4786 5.2903 7.9335 11.4175 -7.2113 0.0000 0.0000 72.5429 150.9759 368.7397 78.4330 151.2221 388.3799
ENERGY: 140 28.7664 26.5190 4.9146 11.8353 9.1937 -4.3815 0.0000 0.0000 72.6883 149.5358 369.4790 76.8475 149.3775 381.6042
ENERGY: 160 35.4450 32.0741 6.3495 7.4799 7.6443 -5.0689 0.0000 0.0000 64.7189 148.6429 328.9702 83.9239 147.5115 385.8321
ENERGY: 180 28.6304 29.9430 4.7566 10.0922 4.4888 -4.1180 0.0000 0.0000 66.8509 140.6440 339.8073 73.7931 141.0142 353.5201
ENERGY: 200 26.0694 27.8507 6.4847 7.6296 9.6812 -7.5209 0.0000 0.0000 66.1514 136.3462 336.2517 70.1947 136.8952 334.8174
TCL: Running for 100 steps
ETITLE: TS BOND ANGLE DIHED IMPRP ELECT VDW BOUNDARY MISC KINETIC TOTAL TEMP POTENTIAL TOTAL3 TEMPAVG
ENERGY: 200 26.0694 27.8507 6.4847 7.6296 9.6812 -7.5209 0.0000 0.0000 66.1514 136.3462 336.2517 70.1947 136.8264 336.2517
ENERGY: 220 25.3428 31.1839 4.5017 8.3995 5.8601 -8.5251 0.0000 0.0000 64.8131 131.5760 329.4489 66.7629 132.7330 319.4346
ENERGY: 240 21.7237 34.1865 6.2494 11.3299 2.8691 -9.2042 0.0000 0.0000 66.1310 133.2854 336.1478 67.1544 133.2575 332.4069
ENERGY: 260 22.6896 28.3098 9.6787 6.6126 7.0559 -7.5846 0.0000 0.0000 61.5087 128.2707 312.6522 66.7620 128.4526 303.6840
ENERGY: 280 20.3864 27.4579 8.1106 8.9777 7.3945 -8.7689 0.0000 0.0000 63.3324 126.8907 321.9222 63.5584 126.3735 307.9292
ENERGY: 300 25.1632 23.2423 7.0837 6.5488 11.0992 -10.8010 0.0000 0.0000 58.4940 120.8300 297.3282 62.3361 120.6489 308.5113
TCL: Running for 100 steps
ETITLE: TS BOND ANGLE DIHED IMPRP ELECT VDW BOUNDARY MISC KINETIC TOTAL TEMP POTENTIAL TOTAL3 TEMPAVG
ENERGY: 300 25.1632 23.2423 7.0837 6.5488 11.0992 -10.8010 0.0000 0.0000 58.4940 120.8300 297.3282 62.3361 121.2803 297.3282
ENERGY: 320 18.1182 22.4323 7.6528 5.6650 10.4950 -7.2679 0.0000 0.0000 56.2938 113.3891 286.1448 57.0953 113.2728 295.7169
ENERGY: 340 17.0410 24.5185 5.2316 12.0135 12.6141 -8.4382 0.0000 0.0000 55.0721 118.0527 279.9350 62.9805 118.1779 297.5446
ENERGY: 360 21.3799 29.9900 5.3097 10.3209 9.8717 -10.4492 0.0000 0.0000 55.5751 121.9982 282.4917 66.4230 121.7159 305.3772
ENERGY: 380 22.2910 29.8461 4.7087 9.4920 7.7476 -10.7129 0.0000 0.0000 63.5356 126.9080 322.9551 63.3724 127.1708 329.8641
ENERGY: 400 31.8125 27.5465 4.0462 7.8458 9.3509 -11.6059 0.0000 0.0000 56.4017 125.3978 286.6934 68.9961 125.8026 318.7587
TCL: Running for 100 steps
ETITLE: TS BOND ANGLE DIHED IMPRP ELECT VDW BOUNDARY MISC KINETIC TOTAL TEMP POTENTIAL TOTAL3 TEMPAVG
ENERGY: 400 31.8125 27.5465 4.0462 7.8458 9.3509 -11.6059 0.0000 0.0000 56.4017 125.3978 286.6934 68.9961 125.5409 286.6934
ENERGY: 420 28.8139 25.1150 7.0551 11.8198 12.0982 -11.0117 0.0000 0.0000 52.1968 126.0871 265.3195 73.8903 126.1214 289.3194
ENERGY: 440 28.5874 27.8252 7.2226 9.5611 8.5926 -7.5732 0.0000 0.0000 59.5224 133.7382 302.5557 74.2158 133.2514 321.3214
ENERGY: 460 20.9645 22.8324 7.5243 8.2439 9.3553 -9.0739 0.0000 0.0000 60.7896 120.6361 308.9970 59.8466 120.6503 295.3647
ENERGY: 480 25.3495 22.2817 8.0483 7.3073 3.2945 -2.3944 0.0000 0.0000 52.7750 116.6620 268.2585 63.8870 117.0046 283.2149
ENERGY: 500 17.2361 30.3668 7.2233 10.3886 6.2026 -5.5813 0.0000 0.0000 54.0600 119.8960 274.7903 65.8360 119.4055 259.2516
TCL: Running for 100 steps
ETITLE: TS BOND ANGLE DIHED IMPRP ELECT VDW BOUNDARY MISC KINETIC TOTAL TEMP POTENTIAL TOTAL3 TEMPAVG
ENERGY: 500 17.2361 30.3668 7.2233 10.3886 6.2026 -5.5813 0.0000 0.0000 54.0600 119.8960 274.7903 65.8360 120.1424 274.7903
ENERGY: 520 20.1835 21.9885 6.3001 11.5140 11.1931 -7.6474 0.0000 0.0000 58.2152 121.7470 295.9111 63.5319 122.0021 279.0126
ENERGY: 540 21.3302 33.3834 6.0269 8.5367 8.6567 -10.4264 0.0000 0.0000 58.2847 125.7922 296.2645 67.5075 125.7362 299.9980
ENERGY: 560 24.7874 28.0058 6.3778 11.1276 6.2361 -13.4534 0.0000 0.0000 58.3122 121.3935 296.4046 63.0813 120.8747 304.1232
ENERGY: 580 17.2995 27.1322 9.2940 10.9875 5.3736 -13.1209 0.0000 0.0000 57.2517 114.2176 291.0137 56.9659 114.5466 308.1323
ENERGY: 600 18.0295 21.7991 9.2589 7.6316 6.3922 -5.6724 0.0000 0.0000 56.6765 114.1154 288.0901 57.4389 114.7008 277.9924
TCL: Running for 100 steps
ETITLE: TS BOND ANGLE DIHED IMPRP ELECT VDW BOUNDARY MISC KINETIC TOTAL TEMP POTENTIAL TOTAL3 TEMPAVG
ENERGY: 600 18.0295 21.7991 9.2589 7.6316 6.3922 -5.6724 0.0000 0.0000 56.6765 114.1154 288.0901 57.4389 114.3339 288.0901
ENERGY: 620 23.1014 24.0224 6.8828 7.7722 7.2083 -8.3298 0.0000 0.0000 54.6021 115.2595 277.5456 60.6574 115.0819 280.8906
ENERGY: 640 19.6119 26.0734 7.1978 5.8515 8.1963 -13.2428 0.0000 0.0000 52.9291 106.6173 269.0419 53.6881 107.3006 264.4994
ENERGY: 660 21.1385 29.5216 5.2287 10.3035 5.5274 -11.9617 0.0000 0.0000 47.7492 107.5071 242.7118 59.7579 107.2562 270.0346
ENERGY: 680 20.6809 27.2609 7.0826 7.2389 2.0983 -5.9524 0.0000 0.0000 56.9543 115.3637 289.5022 58.4093 116.1321 300.6887
ENERGY: 700 22.7360 27.4869 6.3328 7.0160 6.3048 -8.1432 0.0000 0.0000 53.6655 115.3987 272.7848 61.7333 115.9834 264.3602
TCL: Running for 100 steps
ETITLE: TS BOND ANGLE DIHED IMPRP ELECT VDW BOUNDARY MISC KINETIC TOTAL TEMP POTENTIAL TOTAL3 TEMPAVG
ENERGY: 700 22.7360 27.4869 6.3328 7.0160 6.3048 -8.1432 0.0000 0.0000 53.6655 115.3987 272.7848 61.7333 115.3834 272.7848
ENERGY: 720 23.5010 33.5794 8.1154 7.5370 5.7516 -13.1318 0.0000 0.0000 42.2206 107.5731 214.6097 65.3526 107.7020 255.5153
ENERGY: 740 22.6444 29.6307 6.9571 11.9779 2.4146 -12.9280 0.0000 0.0000 49.0089 109.7055 249.1150 60.6966 109.5351 261.1403
ENERGY: 760 21.9914 31.2140 7.2295 6.6583 -1.7596 -7.2516 0.0000 0.0000 59.1898 117.2718 300.8654 58.0820 118.0424 283.5036
ENERGY: 780 18.9868 25.7059 7.7751 8.5499 3.3861 -8.7444 0.0000 0.0000 58.5270 114.1865 297.4962 55.6595 114.8317 302.0858
ENERGY: 800 21.3676 28.2652 6.1788 12.4493 6.3365 -11.9405 0.0000 0.0000 53.1034 115.7603 269.9277 62.6569 115.6961 286.7902
TCL: Running for 100 steps
ETITLE: TS BOND ANGLE DIHED IMPRP ELECT VDW BOUNDARY MISC KINETIC TOTAL TEMP POTENTIAL TOTAL3 TEMPAVG
ENERGY: 800 21.3676 28.2652 6.1788 12.4493 6.3365 -11.9405 0.0000 0.0000 53.1034 115.7603 269.9277 62.6569 116.2051 269.9277
ENERGY: 820 17.3314 28.9707 7.6810 6.4963 10.6551 -11.4587 0.0000 0.0000 59.0289 118.7048 300.0475 59.6758 118.2829 292.6990
ENERGY: 840 24.0120 27.6999 8.1819 7.5531 6.8123 -11.2240 0.0000 0.0000 59.7076 122.7427 303.4974 63.0350 122.5862 329.8626
ENERGY: 860 20.0133 25.5673 10.1994 10.4570 8.0213 -11.4498 0.0000 0.0000 55.4057 118.2142 281.6306 62.8085 118.0238 284.8158
ENERGY: 880 22.5118 29.7592 8.7634 5.1819 10.8930 -11.7217 0.0000 0.0000 58.2280 123.6156 295.9763 65.3876 124.2637 293.7148
ENERGY: 900 20.5499 29.6262 7.1039 8.4381 7.0535 -12.0674 0.0000 0.0000 64.7361 125.4403 329.0577 60.7041 125.0356 325.8252
TCL: Running for 100 steps
ETITLE: TS BOND ANGLE DIHED IMPRP ELECT VDW BOUNDARY MISC KINETIC TOTAL TEMP POTENTIAL TOTAL3 TEMPAVG
ENERGY: 900 20.5499 29.6262 7.1039 8.4381 7.0535 -12.0674 0.0000 0.0000 64.7361 125.4403 329.0577 60.7041 125.4560 329.0577
ENERGY: 920 20.6430 22.3223 7.6355 5.4027 6.3032 -7.7023 0.0000 0.0000 71.2782 125.8827 362.3116 54.6045 125.1598 353.0107
ENERGY: 940 18.1160 30.9902 10.7140 7.9217 -0.3356 -4.4050 0.0000 0.0000 63.2786 126.2798 321.6487 63.0012 125.9385 320.7603
ENERGY: 960 20.9432 24.2174 13.1525 9.1551 1.2888 -10.4534 0.0000 0.0000 66.7209 125.0246 339.1465 58.3037 125.9411 317.6622
ENERGY: 980 20.9150 32.6632 10.5304 10.3726 2.8590 -12.3276 0.0000 0.0000 58.8915 123.9042 299.3490 65.0127 124.4104 304.8095
ENERGY: 1000 18.6644 28.2064 10.0073 9.0165 4.7913 -11.0967 0.0000 0.0000 59.6657 119.2550 303.2843 59.5893 119.6380 308.4200
TCL: Running for 100 steps
ETITLE: TS BOND ANGLE DIHED IMPRP ELECT VDW BOUNDARY MISC KINETIC TOTAL TEMP POTENTIAL TOTAL3 TEMPAVG
ENERGY: 1000 18.6644 28.2064 10.0073 9.0165 4.7913 -11.0967 0.0000 0.0000 59.6657 119.2550 303.2843 59.5893 119.6646 303.2843
ENERGY: 1020 24.2413 25.9482 7.5415 8.3496 -1.0257 -3.1911 0.0000 0.0000 56.7934 118.6572 288.6841 61.8638 119.3507 331.0046
ENERGY: 1040 21.8366 29.1960 7.0668 7.4066 -0.0220 -5.1898 0.0000 0.0000 63.5082 123.8025 322.8160 60.2943 124.0581 338.0248
ENERGY: 1060 23.9841 31.8894 6.8342 7.1067 2.5737 -7.8121 0.0000 0.0000 53.0562 117.6323 269.6878 64.5761 117.7816 291.9980
ENERGY: 1080 31.6971 25.3265 6.4967 10.3550 -1.7537 -10.5336 0.0000 0.0000 55.0128 116.6008 279.6333 61.5880 116.8220 303.8513
ENERGY: 1100 24.5921 19.8079 7.1509 7.0810 3.8190 -9.7097 0.0000 0.0000 55.6962 108.4375 283.1071 52.7413 108.9587 274.5758
TCL: Running for 100 steps
ETITLE: TS BOND ANGLE DIHED IMPRP ELECT VDW BOUNDARY MISC KINETIC TOTAL TEMP POTENTIAL TOTAL3 TEMPAVG
ENERGY: 1100 24.5921 19.8079 7.1509 7.0810 3.8190 -9.7097 0.0000 0.0000 55.6962 108.4375 283.1071 52.7413 108.8008 283.1071
ENERGY: 1120 18.1044 33.8565 6.4573 6.5137 -1.5143 -5.1008 0.0000 0.0000 52.8929 111.2097 268.8576 58.3169 112.9422 276.2188
ENERGY: 1140 21.1412 26.5423 6.4508 6.6335 -0.5033 -9.5439 0.0000 0.0000 64.8985 115.6191 329.8832 50.7206 115.9839 310.5797
ENERGY: 1160 18.3016 24.7294 8.2914 5.7839 4.3361 -12.8562 0.0000 0.0000 60.8552 109.4414 309.3306 48.5862 109.3100 275.4285
ENERGY: 1180 23.4726 33.6457 5.9546 7.1107 0.6050 -13.6149 0.0000 0.0000 62.8748 120.0485 319.5961 57.1737 119.8246 328.2800
ENERGY: 1200 17.6563 32.2561 7.0239 8.3759 -2.8085 -12.1640 0.0000 0.0000 63.3235 113.6631 321.8771 50.3396 114.6540 337.5223
TCL: Running for 100 steps
ETITLE: TS BOND ANGLE DIHED IMPRP ELECT VDW BOUNDARY MISC KINETIC TOTAL TEMP POTENTIAL TOTAL3 TEMPAVG
ENERGY: 1200 17.6563 32.2561 7.0239 8.3759 -2.8085 -12.1640 0.0000 0.0000 63.3235 113.6631 321.8771 50.3396 114.1686 321.8771
ENERGY: 1220 24.4061 31.9147 10.5753 7.5701 -5.2464 -9.0586 0.0000 0.0000 58.7281 118.8892 298.5182 60.1611 118.8039 317.5195
ENERGY: 1240 23.4755 29.5240 10.6462 10.7640 -5.8673 -9.7272 0.0000 0.0000 57.3112 116.1264 291.3161 58.8152 116.4173 287.1499
ENERGY: 1260 26.4287 27.8998 7.4375 10.7386 -4.3052 -8.2129 0.0000 0.0000 58.1387 118.1252 295.5224 59.9866 118.4778 322.4528
ENERGY: 1280 21.5741 32.2680 5.2011 6.1083 -6.1453 -4.1515 0.0000 0.0000 67.7617 122.6163 344.4367 54.8546 122.9064 343.6531
ENERGY: 1300 24.9338 27.4962 5.0223 6.9046 -7.4685 -3.4340 0.0000 0.0000 74.4863 127.9407 378.6181 53.4544 128.9380 359.9714
TCL: Running for 100 steps
ETITLE: TS BOND ANGLE DIHED IMPRP ELECT VDW BOUNDARY MISC KINETIC TOTAL TEMP POTENTIAL TOTAL3 TEMPAVG
ENERGY: 1300 24.9338 27.4962 5.0223 6.9046 -7.4685 -3.4340 0.0000 0.0000 74.4863 127.9407 378.6181 53.4544 127.6981 378.6181
ENERGY: 1320 25.8391 27.9343 4.1718 12.0697 -3.6750 -4.6354 0.0000 0.0000 63.4326 125.1369 322.4314 61.7044 125.4799 348.7753
ENERGY: 1340 31.7794 24.8135 4.3285 17.2913 -2.3977 -10.3122 0.0000 0.0000 62.1968 127.6996 316.1499 65.5028 127.2157 343.3251
ENERGY: 1360 31.4555 31.3032 2.9378 12.4859 0.3105 -9.8963 0.0000 0.0000 62.6569 131.2534 318.4887 68.5965 132.0402 336.7072
ENERGY: 1380 19.1954 35.7747 3.6165 13.2875 -1.0827 -6.8315 0.0000 0.0000 70.7518 134.7117 359.6355 63.9599 134.3359 355.7382
ENERGY: 1400 25.2607 33.3053 3.6503 8.0617 -3.6442 -8.0838 0.0000 0.0000 68.7768 127.3268 349.5968 58.5500 128.2542 331.1535
TCL: Running for 100 steps
ETITLE: TS BOND ANGLE DIHED IMPRP ELECT VDW BOUNDARY MISC KINETIC TOTAL TEMP POTENTIAL TOTAL3 TEMPAVG
ENERGY: 1400 25.2607 33.3053 3.6503 8.0617 -3.6442 -8.0838 0.0000 0.0000 68.7768 127.3268 349.5968 58.5500 127.9889 349.5968
ENERGY: 1420 21.3832 34.3695 2.4004 11.4709 -7.1238 -5.4224 0.0000 0.0000 62.6813 119.7591 318.6126 57.0778 120.3888 304.9370
ENERGY: 1440 24.0471 26.4028 3.1022 12.7013 -5.8709 -8.6477 0.0000 0.0000 64.3247 116.0596 326.9662 51.7349 116.8430 309.7440
ENERGY: 1460 19.3423 26.0764 3.2277 8.8035 -1.3375 -4.5622 0.0000 0.0000 65.5764 117.1266 333.3289 51.5501 117.0622 344.4160
ENERGY: 1480 22.2510 29.5212 2.7976 12.3409 -4.4533 -2.9566 0.0000 0.0000 59.2916 118.7926 301.3829 59.5009 118.7186 300.5653
ENERGY: 1500 26.7940 31.0992 3.4657 11.1079 -1.8665 -7.7033 0.0000 0.0000 60.0703 122.9673 305.3410 62.8970 123.0042 330.4995
TCL: Running for 100 steps
ETITLE: TS BOND ANGLE DIHED IMPRP ELECT VDW BOUNDARY MISC KINETIC TOTAL TEMP POTENTIAL TOTAL3 TEMPAVG
ENERGY: 1500 26.7940 31.0992 3.4657 11.1079 -1.8665 -7.7033 0.0000 0.0000 60.0703 122.9673 305.3410 62.8970 123.1208 305.3410
ENERGY: 1520 31.5217 26.1343 1.9947 12.6217 -1.3882 -11.7938 0.0000 0.0000 63.8259 122.9162 324.4306 59.0904 122.7359 330.5405
ENERGY: 1540 26.7460 28.7416 2.9889 9.0730 -4.9159 -6.2562 0.0000 0.0000 57.4976 113.8751 292.2638 56.3775 114.4251 292.0793
ENERGY: 1560 24.8705 27.6767 5.1788 7.2783 -6.8621 -2.3734 0.0000 0.0000 57.1906 112.9594 290.7035 55.7688 112.7969 302.6329
ENERGY: 1580 20.7000 33.0150 6.1860 18.6524 -13.6864 -4.9367 0.0000 0.0000 51.6370 111.5672 262.4739 59.9302 112.1270 303.1613
ENERGY: 1600 28.6830 28.0876 3.6325 8.1638 -6.8643 -8.2077 0.0000 0.0000 61.4184 114.9132 312.1932 53.4948 116.3033 303.2114
TCL: Running for 100 steps
ETITLE: TS BOND ANGLE DIHED IMPRP ELECT VDW BOUNDARY MISC KINETIC TOTAL TEMP POTENTIAL TOTAL3 TEMPAVG
ENERGY: 1600 28.6830 28.0876 3.6325 8.1638 -6.8643 -8.2077 0.0000 0.0000 61.4184 114.9132 312.1932 53.4948 115.1133 312.1932
ENERGY: 1620 20.8186 37.6261 4.0066 8.2801 -8.0879 -7.6969 0.0000 0.0000 64.3751 119.3217 327.2223 54.9466 120.9303 333.3134
ENERGY: 1640 24.8346 37.5706 3.0642 13.0629 -6.9386 -7.9946 0.0000 0.0000 62.7010 126.3002 318.7129 63.5992 127.2857 296.0955
ENERGY: 1660 18.8386 33.5740 3.1505 7.6647 -7.5559 0.9135 0.0000 0.0000 62.9040 119.4893 319.7446 56.5854 119.4404 341.9393
ENERGY: 1680 24.9393 33.7420 4.4155 16.3554 -10.9617 -2.9359 0.0000 0.0000 56.0870 121.6414 285.0934 65.5544 122.6812 303.3985
ENERGY: 1700 30.1650 34.3638 3.1772 10.2995 -6.1213 -8.9082 0.0000 0.0000 60.4241 123.4001 307.1393 62.9760 124.3568 333.7071
TCL: Setting parameter langevinTemp to 400.00
TCL: Running for 100 steps
ETITLE: TS BOND ANGLE DIHED IMPRP ELECT VDW BOUNDARY MISC KINETIC TOTAL TEMP POTENTIAL TOTAL3 TEMPAVG
ENERGY: 1700 30.1650 34.3638 3.1772 10.2995 -6.1213 -8.9082 0.0000 0.0000 80.5655 143.5414 409.5191 62.9760 143.7632 409.5191
ENERGY: 1720 25.0195 37.6370 2.7041 9.5253 -5.5325 -8.7470 0.0000 0.0000 82.4811 143.0875 419.2564 60.6064 142.9654 388.2056
ENERGY: 1740 30.0365 35.2502 2.9241 14.1858 -9.6741 -7.3859 0.0000 0.0000 78.0998 143.4366 396.9862 65.3367 142.5986 379.3872
ENERGY: 1760 36.0663 38.4649 3.1359 14.0175 -8.9719 -9.7567 0.0000 0.0000 88.5921 161.5482 450.3191 72.9560 161.4484 431.1032
ENERGY: 1780 29.5786 44.1413 3.9020 10.2922 -10.8206 -6.3634 0.0000 0.0000 87.3683 158.0983 444.0980 70.7300 158.0349 474.2853
ENERGY: 1800 25.9481 49.9995 3.8369 17.0660 -10.9103 -7.7007 0.0000 0.0000 79.5017 157.7412 404.1120 78.2395 156.5244 414.2046
TCL: Running for 100 steps
ETITLE: TS BOND ANGLE DIHED IMPRP ELECT VDW BOUNDARY MISC KINETIC TOTAL TEMP POTENTIAL TOTAL3 TEMPAVG
ENERGY: 1800 25.9481 49.9995 3.8369 17.0660 -10.9103 -7.7007 0.0000 0.0000 79.5017 157.7412 404.1120 78.2395 157.9859 404.1120
ENERGY: 1820 28.1063 38.2565 7.2895 7.6649 -0.7359 -6.4620 0.0000 0.0000 82.4945 156.6138 419.3247 74.1193 156.8187 428.5171
ENERGY: 1840 34.8958 30.7916 3.8701 11.1453 0.1995 -10.4907 0.0000 0.0000 90.5080 160.9196 460.0575 70.4116 162.2870 427.2095
ENERGY: 1860 29.0299 31.3109 9.1060 11.2786 -4.9334 -4.8079 0.0000 0.0000 89.6269 160.6110 455.5789 70.9841 161.7977 444.2877
ENERGY: 1880 28.4188 37.8523 9.7932 20.7073 -8.6534 -5.6185 0.0000 0.0000 85.4345 167.9341 434.2686 82.4996 166.6505 418.6483
ENERGY: 1900 22.1567 38.1556 8.7062 13.9479 -4.5390 -3.8441 0.0000 0.0000 88.1874 162.7706 448.2620 74.5832 163.0972 446.2640
TCL: Running for 100 steps
ETITLE: TS BOND ANGLE DIHED IMPRP ELECT VDW BOUNDARY MISC KINETIC TOTAL TEMP POTENTIAL TOTAL3 TEMPAVG
ENERGY: 1900 22.1567 38.1556 8.7062 13.9479 -4.5390 -3.8441 0.0000 0.0000 88.1874 162.7706 448.2620 74.5832 163.4415 448.2620
ENERGY: 1920 24.9180 30.5187 5.2776 12.7042 -0.9368 -0.5048 0.0000 0.0000 89.4031 161.3801 454.4414 71.9770 162.3786 400.9542
ENERGY: 1940 29.7200 26.3330 6.2365 11.3184 3.1017 -4.0217 0.0000 0.0000 83.0906 155.7785 422.3547 72.6878 157.7195 447.0889
ENERGY: 1960 24.7356 34.2491 7.1188 10.4984 5.7817 -5.4244 0.0000 0.0000 75.3719 152.3312 383.1201 76.9593 153.7321 357.2395
ENERGY: 1980 28.6933 23.3336 9.9624 14.1947 4.1201 -8.2904 0.0000 0.0000 82.8059 154.8197 420.9075 72.0137 154.1697 380.8577
ENERGY: 2000 31.1554 27.0292 9.7136 13.6970 4.0275 -5.0094 0.0000 0.0000 66.0201 146.6335 335.5840 80.6134 145.0754 346.5365
TCL: Running for 100 steps
ETITLE: TS BOND ANGLE DIHED IMPRP ELECT VDW BOUNDARY MISC KINETIC TOTAL TEMP POTENTIAL TOTAL3 TEMPAVG
ENERGY: 2000 31.1554 27.0292 9.7136 13.6970 4.0275 -5.0094 0.0000 0.0000 66.0201 146.6335 335.5840 80.6134 146.9115 335.5840
ENERGY: 2020 28.7579 33.7872 8.5360 11.5420 -0.9529 -2.6611 0.0000 0.0000 68.4115 147.4205 347.7398 79.0090 147.5334 357.1010
ENERGY: 2040 35.4506 29.3803 9.8601 9.9843 -1.9505 -8.8882 0.0000 0.0000 82.9906 156.8272 421.8460 73.8367 157.1703 382.7641
ENERGY: 2060 21.7370 35.1316 11.8620 7.9232 2.4836 -5.9544 0.0000 0.0000 85.1185 158.3016 432.6626 73.1830 159.3652 386.3143
ENERGY: 2080 28.0923 31.4323 9.3558 16.0003 -2.1761 -6.2379 0.0000 0.0000 71.1931 147.6597 361.8786 76.4666 147.9929 366.2394
ENERGY: 2100 20.0641 31.7491 8.6184 10.4054 -4.5131 -4.4739 0.0000 0.0000 87.5460 149.3959 445.0015 61.8499 150.6812 405.8978
TCL: Running for 100 steps
ETITLE: TS BOND ANGLE DIHED IMPRP ELECT VDW BOUNDARY MISC KINETIC TOTAL TEMP POTENTIAL TOTAL3 TEMPAVG
ENERGY: 2100 20.0641 31.7491 8.6184 10.4054 -4.5131 -4.4739 0.0000 0.0000 87.5460 149.3959 445.0015 61.8499 150.0999 445.0015
ENERGY: 2120 19.9434 33.7420 6.4473 12.9571 -4.8980 -3.9410 0.0000 0.0000 80.9012 145.1521 411.2259 64.2508 145.6795 376.7181
ENERGY: 2140 19.1621 43.3893 8.9042 12.0438 1.4767 -10.1080 0.0000 0.0000 66.8633 141.7313 339.8699 74.8680 142.0963 347.2275
ENERGY: 2160 17.7492 40.6985 7.8354 12.1109 4.1762 -14.0023 0.0000 0.0000 76.0127 144.5805 386.3772 68.5678 144.5127 362.9344
ENERGY: 2180 36.0293 41.6846 5.6290 11.9148 1.7106 -15.3640 0.0000 0.0000 66.1774 147.7817 336.3836 81.6043 147.1156 359.9625
ENERGY: 2200 25.1368 33.7363 5.6977 14.7449 3.5484 -8.2617 0.0000 0.0000 76.5589 151.1613 389.1534 74.6024 151.2755 356.8301
TCL: Running for 100 steps
ETITLE: TS BOND ANGLE DIHED IMPRP ELECT VDW BOUNDARY MISC KINETIC TOTAL TEMP POTENTIAL TOTAL3 TEMPAVG
ENERGY: 2200 25.1368 33.7363 5.6977 14.7449 3.5484 -8.2617 0.0000 0.0000 76.5589 151.1613 389.1534 74.6024 151.2339 389.1534
ENERGY: 2220 20.7632 34.3198 8.6396 12.7252 3.8101 -2.9503 0.0000 0.0000 77.1335 154.4411 392.0740 77.3076 155.2933 398.8476
ENERGY: 2240 26.8607 34.7598 5.8093 10.2465 1.4947 0.0658 0.0000 0.0000 72.7036 151.9405 369.5569 79.2369 153.0368 386.8608
ENERGY: 2260 27.7011 37.3527 5.5594 13.5608 -1.8917 -3.3301 0.0000 0.0000 75.6912 154.6434 384.7430 78.9522 154.0372 360.7070
ENERGY: 2280 25.3400 37.7105 7.9680 14.5268 3.2204 -6.4960 0.0000 0.0000 81.5305 163.8002 414.4244 82.2697 164.2803 397.2561
ENERGY: 2300 26.2169 39.7033 7.4339 10.0532 8.9965 -11.0236 0.0000 0.0000 82.5527 163.9329 419.6202 81.3802 165.3367 398.5058
TCL: Running for 100 steps
ETITLE: TS BOND ANGLE DIHED IMPRP ELECT VDW BOUNDARY MISC KINETIC TOTAL TEMP POTENTIAL TOTAL3 TEMPAVG
ENERGY: 2300 26.2169 39.7033 7.4339 10.0532 8.9965 -11.0236 0.0000 0.0000 82.5527 163.9329 419.6202 81.3802 164.0548 419.6202
ENERGY: 2320 28.0190 43.5736 6.2578 10.8446 4.3573 -6.3275 0.0000 0.0000 79.8161 166.5409 405.7097 86.7248 166.4208 431.9317
ENERGY: 2340 28.7077 33.1895 8.6567 13.3397 7.1774 -5.9141 0.0000 0.0000 89.6998 174.8566 455.9492 85.1569 174.0506 454.0008
ENERGY: 2360 30.3863 36.2588 7.1552 8.2480 3.9044 0.3804 0.0000 0.0000 71.1924 157.5256 361.8753 86.3331 156.6669 394.8642
ENERGY: 2380 20.3363 32.0928 8.5947 12.7277 1.1258 -0.2102 0.0000 0.0000 84.5841 159.2512 429.9462 74.6670 159.2014 415.2213
ENERGY: 2400 25.1089 42.0625 13.5063 15.1867 -1.2542 -4.7410 0.0000 0.0000 69.6720 159.5412 354.1468 89.8692 159.5471 399.8633
TCL: Running for 100 steps
ETITLE: TS BOND ANGLE DIHED IMPRP ELECT VDW BOUNDARY MISC KINETIC TOTAL TEMP POTENTIAL TOTAL3 TEMPAVG
ENERGY: 2400 25.1089 42.0625 13.5063 15.1867 -1.2542 -4.7410 0.0000 0.0000 69.6720 159.5412 354.1468 89.8692 160.0394 354.1468
ENERGY: 2420 22.4552 35.9952 8.2226 10.7856 0.3460 -7.7091 0.0000 0.0000 87.6034 157.6990 445.2935 70.0955 158.3773 427.4427
ENERGY: 2440 26.1852 30.3399 4.8759 8.9658 4.0634 -7.7768 0.0000 0.0000 88.5945 155.2479 450.3309 66.6535 155.8472 423.4341
ENERGY: 2460 33.4748 28.4522 8.7666 7.3015 7.4888 -7.8358 0.0000 0.0000 77.3431 154.9913 393.1397 77.6482 154.9752 423.0891
ENERGY: 2480 23.9252 26.2237 7.0445 11.9791 4.1938 -4.6535 0.0000 0.0000 80.4639 149.1767 409.0030 68.7127 149.9869 402.7743
ENERGY: 2500 25.1777 28.2716 7.9307 8.6114 6.7048 -4.1815 0.0000 0.0000 79.5637 152.0784 404.4271 72.5147 152.8344 398.9211
TCL: Running for 100 steps
ETITLE: TS BOND ANGLE DIHED IMPRP ELECT VDW BOUNDARY MISC KINETIC TOTAL TEMP POTENTIAL TOTAL3 TEMPAVG
ENERGY: 2500 25.1777 28.2716 7.9307 8.6114 6.7048 -4.1815 0.0000 0.0000 79.5637 152.0784 404.4271 72.5147 152.2831 404.4271
ENERGY: 2520 31.7743 30.8770 5.7755 14.4750 4.6239 -6.5083 0.0000 0.0000 70.5319 151.5493 358.5177 81.0174 151.0949 379.1621
ENERGY: 2540 34.5658 32.8157 5.9565 13.3294 5.0050 -5.1679 0.0000 0.0000 67.0107 153.5152 340.6192 86.5046 152.5159 384.4183
ENERGY: 2560 33.0282 32.1798 7.9747 11.0255 7.4968 -8.8099 0.0000 0.0000 75.1660 158.0611 382.0734 82.8951 157.0059 401.8533
ENERGY: 2580 30.0262 33.2693 9.1658 11.9457 -0.0166 -4.2866 0.0000 0.0000 85.0349 165.1387 432.2374 80.1038 165.0970 427.7738
ENERGY: 2600 28.2862 32.8694 5.8355 12.5673 7.8484 -7.9423 0.0000 0.0000 76.9722 156.4367 391.2545 79.4645 157.9023 397.6999
TCL: Running for 100 steps
ETITLE: TS BOND ANGLE DIHED IMPRP ELECT VDW BOUNDARY MISC KINETIC TOTAL TEMP POTENTIAL TOTAL3 TEMPAVG
ENERGY: 2600 28.2862 32.8694 5.8355 12.5673 7.8484 -7.9423 0.0000 0.0000 76.9722 156.4367 391.2545 79.4645 156.9069 391.2545
ENERGY: 2620 24.8764 32.9090 10.1334 9.3809 11.4497 -9.4056 0.0000 0.0000 80.8884 160.2323 411.1607 79.3438 159.7233 410.8584
ENERGY: 2640 24.0252 29.9984 9.6662 9.3405 8.4930 -7.5964 0.0000 0.0000 79.4472 153.3741 403.8348 73.9269 154.9055 368.8442
ENERGY: 2660 21.4213 35.4295 10.6046 9.7752 2.9643 -4.6862 0.0000 0.0000 85.7405 161.2491 435.8238 75.5087 161.2260 407.9121
ENERGY: 2680 25.4323 31.9430 7.8439 11.3906 5.3178 -4.5737 0.0000 0.0000 78.3739 155.7278 398.3790 77.3539 155.8862 370.0403
ENERGY: 2700 27.7762 33.3752 9.4285 13.4598 4.0431 -2.2905 0.0000 0.0000 70.4844 156.2767 358.2765 85.7923 157.4031 355.3380
TCL: Running for 100 steps
ETITLE: TS BOND ANGLE DIHED IMPRP ELECT VDW BOUNDARY MISC KINETIC TOTAL TEMP POTENTIAL TOTAL3 TEMPAVG
ENERGY: 2700 27.7762 33.3752 9.4285 13.4598 4.0431 -2.2905 0.0000 0.0000 70.4844 156.2767 358.2765 85.7923 156.5937 358.2765
ENERGY: 2720 30.0447 36.2908 4.6575 16.9052 6.0026 -9.7964 0.0000 0.0000 71.7295 155.8339 364.6056 84.1043 156.7752 401.6739
ENERGY: 2740 33.9277 34.9493 4.6575 10.7663 7.4576 -7.6447 0.0000 0.0000 67.5707 151.6843 343.4657 84.1136 152.6280 342.9315
ENERGY: 2760 32.7331 30.1464 6.2360 12.5840 3.2606 0.5092 0.0000 0.0000 72.6451 158.1144 369.2596 85.4692 158.8820 369.2096
ENERGY: 2780 35.4252 38.2450 6.0863 11.2708 8.3693 2.9376 0.0000 0.0000 60.3968 162.7311 307.0006 102.3343 162.1532 372.9369
ENERGY: 2800 36.8571 27.4886 6.5279 9.3574 3.9102 0.5535 0.0000 0.0000 76.1395 160.8341 387.0217 84.6946 161.0952 396.2147
TCL: Running for 100 steps
ETITLE: TS BOND ANGLE DIHED IMPRP ELECT VDW BOUNDARY MISC KINETIC TOTAL TEMP POTENTIAL TOTAL3 TEMPAVG
ENERGY: 2800 36.8571 27.4886 6.5279 9.3574 3.9102 0.5535 0.0000 0.0000 76.1395 160.8341 387.0217 84.6946 161.3139 387.0217
ENERGY: 2820 30.8114 27.8550 6.4670 7.2731 4.2628 -2.8870 0.0000 0.0000 77.4168 151.1992 393.5143 73.7824 152.4134 394.5279
ENERGY: 2840 31.5130 27.0351 8.8579 7.0881 5.1863 -8.4406 0.0000 0.0000 80.8287 152.0685 410.8569 71.2398 153.0590 412.3764
ENERGY: 2860 30.1069 32.8128 11.1845 10.4442 6.1214 -6.1426 0.0000 0.0000 70.4171 154.9442 357.9345 84.5271 155.5671 395.9540
ENERGY: 2880 29.8775 28.8495 10.3726 7.5503 4.2714 -9.6906 0.0000 0.0000 78.5974 149.8282 399.5153 71.2308 149.9865 375.9709
ENERGY: 2900 33.1780 31.4500 11.0602 6.7478 5.5502 -11.0077 0.0000 0.0000 69.2443 146.2228 351.9730 76.9785 145.7130 365.0948
TCL: Running for 100 steps
ETITLE: TS BOND ANGLE DIHED IMPRP ELECT VDW BOUNDARY MISC KINETIC TOTAL TEMP POTENTIAL TOTAL3 TEMPAVG
ENERGY: 2900 33.1780 31.4500 11.0602 6.7478 5.5502 -11.0077 0.0000 0.0000 69.2443 146.2228 351.9730 76.9785 146.4341 351.9730
ENERGY: 2920 34.3246 29.3565 10.2944 9.7498 -2.7595 -4.8930 0.0000 0.0000 79.8018 155.8747 405.6372 76.0729 156.4796 406.6319
ENERGY: 2940 36.2730 28.6267 13.5326 7.3744 0.3684 -4.1205 0.0000 0.0000 77.0094 159.0640 391.4433 82.0546 157.8626 396.8218
ENERGY: 2960 37.8764 28.2649 12.8320 8.2779 5.0934 -7.6053 0.0000 0.0000 75.0552 159.7945 381.5100 84.7393 160.1860 375.8165
ENERGY: 2980 35.8982 30.8539 9.5567 10.1047 1.5269 -7.2515 0.0000 0.0000 78.7707 159.4596 400.3960 80.6889 159.6930 393.0661
ENERGY: 3000 27.9628 34.8280 9.1302 12.4580 1.1086 -10.3406 0.0000 0.0000 85.8601 161.0070 436.4320 75.1469 162.1946 418.7012
TCL: Running for 100 steps
ETITLE: TS BOND ANGLE DIHED IMPRP ELECT VDW BOUNDARY MISC KINETIC TOTAL TEMP POTENTIAL TOTAL3 TEMPAVG
ENERGY: 3000 27.9628 34.8280 9.1302 12.4580 1.1086 -10.3406 0.0000 0.0000 85.8601 161.0070 436.4320 75.1469 161.2595 436.4320
ENERGY: 3020 24.0247 28.4374 9.4644 15.7837 1.6076 -9.4814 0.0000 0.0000 80.3210 150.1574 408.2762 69.8364 151.4047 385.1899
ENERGY: 3040 34.4282 30.2409 11.5795 9.9829 -2.0747 -9.9446 0.0000 0.0000 75.1641 149.3763 382.0634 74.2122 150.5959 402.7123
ENERGY: 3060 22.6868 27.0814 9.1051 10.2796 3.2940 -9.3556 0.0000 0.0000 79.7205 142.8116 405.2240 63.0912 142.8506 384.1235
ENERGY: 3080 24.9710 27.7633 9.7813 10.2061 -0.4373 -9.9518 0.0000 0.0000 78.5779 140.9104 399.4159 62.3326 140.7494 360.3521
ENERGY: 3100 21.9751 26.8255 7.4245 10.3943 2.5577 -14.3847 0.0000 0.0000 81.0930 135.8856 412.2008 54.7925 137.6617 358.8603
TCL: Running for 100 steps
ETITLE: TS BOND ANGLE DIHED IMPRP ELECT VDW BOUNDARY MISC KINETIC TOTAL TEMP POTENTIAL TOTAL3 TEMPAVG
ENERGY: 3100 21.9751 26.8255 7.4245 10.3943 2.5577 -14.3847 0.0000 0.0000 81.0930 135.8856 412.2008 54.7925 136.4714 412.2008
ENERGY: 3120 18.1967 32.2866 7.1030 13.8177 0.4887 -11.4703 0.0000 0.0000 84.9733 145.3958 431.9241 60.4225 145.2647 402.6298
ENERGY: 3140 20.0130 29.9886 4.9790 9.5421 2.7354 -7.0421 0.0000 0.0000 80.3406 140.5566 408.3760 60.2160 139.7016 396.4973
ENERGY: 3160 19.7716 28.7604 4.6313 9.3960 0.0371 -3.2981 0.0000 0.0000 78.1133 137.4117 397.0547 59.2984 137.1582 402.8164
ENERGY: 3180 23.7148 26.5739 6.6080 13.8112 -0.9738 -5.7900 0.0000 0.0000 79.7218 143.6659 405.2304 63.9442 144.0741 380.4274
ENERGY: 3200 25.3293 30.9986 8.4324 11.3439 4.8531 -10.1126 0.0000 0.0000 83.2357 154.0804 423.0919 70.8447 153.3420 410.0326
TCL: Running for 100 steps
ETITLE: TS BOND ANGLE DIHED IMPRP ELECT VDW BOUNDARY MISC KINETIC TOTAL TEMP POTENTIAL TOTAL3 TEMPAVG
ENERGY: 3200 25.3293 30.9986 8.4324 11.3439 4.8531 -10.1126 0.0000 0.0000 83.2357 154.0804 423.0919 70.8447 154.1569 423.0919
ENERGY: 3220 25.6136 37.2541 9.1084 11.5423 -3.3910 -10.4707 0.0000 0.0000 89.1908 158.8475 453.3622 69.6567 160.4693 420.2735
ENERGY: 3240 33.8862 39.6767 7.4588 11.1104 -3.1428 -10.5847 0.0000 0.0000 89.8514 168.2561 456.7200 78.4047 168.6247 465.2724
ENERGY: 3260 38.9417 33.7213 7.2337 8.9968 5.6752 -13.5741 0.0000 0.0000 90.1193 171.1139 458.0818 80.9946 172.1647 470.9053
ENERGY: 3280 30.8848 40.5855 11.6515 15.7360 -3.4756 -7.1955 0.0000 0.0000 82.1817 170.3683 417.7346 88.1866 169.4086 447.6826
ENERGY: 3300 45.0001 30.7330 11.2498 12.9621 -2.7557 -9.2517 0.0000 0.0000 81.6607 169.5983 415.0861 87.9376 171.0023 421.8360
TCL: Running for 100 steps
ETITLE: TS BOND ANGLE DIHED IMPRP ELECT VDW BOUNDARY MISC KINETIC TOTAL TEMP POTENTIAL TOTAL3 TEMPAVG
ENERGY: 3300 45.0001 30.7330 11.2498 12.9621 -2.7557 -9.2517 0.0000 0.0000 81.6607 169.5983 415.0861 87.9376 169.7763 415.0861
ENERGY: 3320 30.9364 43.3591 11.0010 17.2335 -4.8018 -4.5291 0.0000 0.0000 73.3982 166.5973 373.0872 93.1992 166.6548 414.9786
ENERGY: 3340 29.5142 34.5874 7.5133 12.7104 -3.6814 -6.4616 0.0000 0.0000 90.6135 164.7958 460.5936 74.1824 164.2467 455.0596
ENERGY: 3360 29.6731 46.3371 7.6354 18.2752 -2.1544 -7.8550 0.0000 0.0000 77.4010 169.3124 393.4337 91.9115 170.9295 411.5861
ENERGY: 3380 33.3872 36.1686 6.1612 14.7653 5.9914 -16.6171 0.0000 0.0000 76.2953 156.1520 387.8134 79.8567 156.4121 422.6300
ENERGY: 3400 29.7940 34.4321 6.6978 8.0190 4.2870 -8.6335 0.0000 0.0000 74.1665 148.7629 376.9929 74.5964 150.4050 378.8353
TCL: Running for 100 steps
ETITLE: TS BOND ANGLE DIHED IMPRP ELECT VDW BOUNDARY MISC KINETIC TOTAL TEMP POTENTIAL TOTAL3 TEMPAVG
ENERGY: 3400 29.7940 34.4321 6.6978 8.0190 4.2870 -8.6335 0.0000 0.0000 74.1665 148.7629 376.9929 74.5964 149.2436 376.9929
ENERGY: 3420 30.9449 30.9662 5.7617 11.9910 1.3050 -8.1778 0.0000 0.0000 81.0844 153.8754 412.1570 72.7910 154.7631 379.1838
ENERGY: 3440 24.4353 34.0802 5.2658 13.7546 -2.9080 -3.8395 0.0000 0.0000 73.5275 144.3159 373.7446 70.7884 144.7272 391.1736
ENERGY: 3460 32.4565 29.0680 5.6258 7.6123 1.7617 -10.9120 0.0000 0.0000 82.1511 147.7633 417.5787 65.6122 148.9092 406.9073
ENERGY: 3480 27.5595 47.4628 6.5665 9.7018 -6.8743 -11.3682 0.0000 0.0000 69.7247 142.7729 354.4147 73.0482 143.9054 384.2447
ENERGY: 3500 28.5220 35.8795 5.4861 10.6717 -2.8507 -8.4107 0.0000 0.0000 73.4838 142.7816 373.5223 69.2979 141.6165 382.7108
TCL: Running for 100 steps
ETITLE: TS BOND ANGLE DIHED IMPRP ELECT VDW BOUNDARY MISC KINETIC TOTAL TEMP POTENTIAL TOTAL3 TEMPAVG
ENERGY: 3500 28.5220 35.8795 5.4861 10.6717 -2.8507 -8.4107 0.0000 0.0000 73.4838 142.7816 373.5223 69.2979 143.1319 373.5223
ENERGY: 3520 23.8035 31.9835 5.7702 11.7074 -2.0805 0.0065 0.0000 0.0000 74.4039 145.5945 378.1996 71.1906 146.5164 394.8011
ENERGY: 3540 31.7556 27.2263 10.3000 14.7263 -1.8435 -6.9756 0.0000 0.0000 87.0129 162.2020 442.2915 75.1891 161.8040 427.2426
ENERGY: 3560 29.2984 33.6317 9.2872 9.2650 1.0666 -12.1776 0.0000 0.0000 98.3015 168.6728 499.6723 70.3713 169.4239 469.8217
ENERGY: 3580 35.7105 38.6341 8.0103 11.7918 7.7799 -12.2656 0.0000 0.0000 82.0540 171.7151 417.0854 89.6611 172.0233 442.2463
ENERGY: 3600 26.7774 34.9787 9.8036 12.7583 6.7686 -10.5137 0.0000 0.0000 88.9162 169.4892 451.9663 80.5730 170.0569 417.3534
TCL: Running for 100 steps
ETITLE: TS BOND ANGLE DIHED IMPRP ELECT VDW BOUNDARY MISC KINETIC TOTAL TEMP POTENTIAL TOTAL3 TEMPAVG
ENERGY: 3600 26.7774 34.9787 9.8036 12.7583 6.7686 -10.5137 0.0000 0.0000 88.9162 169.4892 451.9663 80.5730 170.1226 451.9663
ENERGY: 3620 29.1078 30.3172 10.9357 11.1565 9.8579 -12.2867 0.0000 0.0000 76.6104 155.6989 389.4155 79.0884 155.1780 405.3180
ENERGY: 3640 35.3667 25.7001 8.2288 11.9572 9.3747 -8.9470 0.0000 0.0000 75.1268 156.8073 381.8741 81.6804 157.3734 377.1379
ENERGY: 3660 24.2330 33.2710 8.4335 7.5089 6.1812 -6.5316 0.0000 0.0000 85.2670 158.3630 433.4170 73.0960 159.0780 424.1936
ENERGY: 3680 33.9824 26.6738 9.8075 9.5237 4.6158 -6.5647 0.0000 0.0000 86.8576 164.8961 441.5021 78.0385 166.0243 411.1704
ENERGY: 3700 31.1839 28.0629 7.7804 15.8229 6.1034 -8.1572 0.0000 0.0000 76.8517 157.6480 390.6416 80.7963 158.4890 391.3127
TCL: Running for 100 steps
ETITLE: TS BOND ANGLE DIHED IMPRP ELECT VDW BOUNDARY MISC KINETIC TOTAL TEMP POTENTIAL TOTAL3 TEMPAVG
ENERGY: 3700 31.1839 28.0629 7.7804 15.8229 6.1034 -8.1572 0.0000 0.0000 76.8517 157.6480 390.6416 80.7963 157.8410 390.6416
ENERGY: 3720 28.4036 28.1160 17.5071 12.5232 4.2758 -3.5829 0.0000 0.0000 84.4997 171.7426 429.5173 87.2429 171.2556 422.4900
ENERGY: 3740 33.6466 28.7483 14.5406 16.6762 3.9807 -6.2402 0.0000 0.0000 82.1991 173.5513 417.8229 91.3522 174.3129 404.4614
ENERGY: 3760 26.6456 39.9781 14.0282 12.0863 10.7799 -13.0793 0.0000 0.0000 73.5132 163.9521 373.6721 90.4389 163.5341 395.6443
ENERGY: 3780 30.5363 30.7096 11.6143 7.6679 10.6758 -10.7850 0.0000 0.0000 78.0021 158.4211 396.4893 80.4190 158.8341 371.9109
ENERGY: 3800 30.6180 32.8772 9.4619 16.3060 2.2064 -7.6108 0.0000 0.0000 81.3790 165.2377 413.6544 83.8587 165.0136 428.4255
TCL: Running for 100 steps
ETITLE: TS BOND ANGLE DIHED IMPRP ELECT VDW BOUNDARY MISC KINETIC TOTAL TEMP POTENTIAL TOTAL3 TEMPAVG
ENERGY: 3800 30.6180 32.8772 9.4619 16.3060 2.2064 -7.6108 0.0000 0.0000 81.3790 165.2377 413.6544 83.8587 165.1930 413.6544
ENERGY: 3820 31.3008 37.7078 8.7674 11.7739 5.5917 -9.9930 0.0000 0.0000 80.7227 165.8713 410.3181 85.1486 166.5145 414.0033
ENERGY: 3840 33.1585 31.2556 7.6700 6.9755 3.4772 -9.7398 0.0000 0.0000 90.4730 163.2699 459.8796 72.7969 162.4217 451.5562
ENERGY: 3860 27.5142 28.8089 8.6998 10.6644 8.6191 -8.5524 0.0000 0.0000 79.8321 155.5862 405.7914 75.7540 156.2298 404.1995
ENERGY: 3880 18.3239 33.6685 6.8320 10.0092 4.7050 -8.0599 0.0000 0.0000 91.2442 156.7228 463.7994 65.4787 157.1024 417.4282
ENERGY: 3900 33.3083 46.0647 5.8982 9.0509 -1.7246 -11.5416 0.0000 0.0000 83.5095 164.5655 424.4839 81.0560 164.8390 432.8240
TCL: Running for 100 steps
ETITLE: TS BOND ANGLE DIHED IMPRP ELECT VDW BOUNDARY MISC KINETIC TOTAL TEMP POTENTIAL TOTAL3 TEMPAVG
ENERGY: 3900 33.3083 46.0647 5.8982 9.0509 -1.7246 -11.5416 0.0000 0.0000 83.5095 164.5655 424.4839 81.0560 164.7606 424.4839
ENERGY: 3920 37.2963 37.2143 6.3145 8.8484 -1.5089 -10.8523 0.0000 0.0000 81.9581 159.2704 416.5980 77.3123 159.6470 423.1231
ENERGY: 3940 35.3830 39.4273 6.7402 7.7394 2.9572 -12.5088 0.0000 0.0000 83.2994 163.0377 423.4159 79.7383 163.2292 417.6463
ENERGY: 3960 27.8931 35.2346 6.4746 10.6513 -2.6898 -4.9836 0.0000 0.0000 79.2317 151.8118 402.7396 72.5801 152.8236 396.6717
ENERGY: 3980 34.5013 31.2728 5.1801 9.1537 3.0095 -5.7717 0.0000 0.0000 80.7418 158.0877 410.4153 77.3459 155.9980 424.5792
ENERGY: 4000 31.2817 36.1087 6.6763 8.6105 2.3936 -7.3944 0.0000 0.0000 77.1285 154.8049 392.0488 77.6764 155.3075 398.9783
TCL: Running for 100 steps
